Circuit: * C:\Users\Lukas\Documents\AS3394 spice files\Draft3.asc

Direct Newton iteration failed to find .op point.  (Use ".option noopiter" to skip.)
Starting Gmin stepping
Gmin = 10
Gmin = 1.07374
Gmin = 0.115292
Gmin = 0.0123794
Gmin = 0.00132923
Gmin = 0.000142725
Gmin = 1.5325e-005
Gmin = 1.6455e-006
Gmin = 1.76685e-007
Gmin = 1.89714e-008
Gmin = 2.03704e-009
Gmin = 2.18725e-010
Gmin = 2.34854e-011
Gmin = 2.52173e-012
Gmin = 2.70769e-013
Gmin = 0
Gmin stepping succeeded in finding the operating point.


Date: Sat Aug 20 20:38:41 2022
Total elapsed time: 0.058 seconds.

tnom = 27
temp = 27
method = modified trap
totiter = 2694
traniter = 2240
tranpoints = 1053
accept = 1051
rejected = 2
matrix size = 38
fillins = 36
solver = Normal
Matrix Compiler1: 3.30 KB object code size  0.6/0.2/[0.2]
Matrix Compiler2: 3.62 KB object code size  0.3/0.3/[0.2]

