Circuit: * C:\Users\Lukas\Documents\Sallen Key Low Pass Spice\Draft2.asc

WARNING: Specified period is not longer than the sum of Trise, Tfall, and Ton for v1.  Increasing period to 1.0002
.OP point found by inspection.

Date: Sat Aug 20 01:04:19 2022
Total elapsed time: 0.016 seconds.

tnom = 27
temp = 27
method = modified trap
totiter = 2280
traniter = 2280
tranpoints = 1141
accept = 1128
rejected = 13
matrix size = 3
fillins = 0
solver = Normal
Matrix Compiler1: 50 bytes object code size  0.0/0.0/[0.0]
Matrix Compiler2:      15 opcodes  0.0/[0.0]/0.0

