Circuit: * C:\Users\Lukas\Documents\AS3394 spice files\dual filter.asc

Direct Newton iteration for .op point succeeded.

Date: Sat Aug 20 05:48:12 2022
Total elapsed time: 0.018 seconds.

tnom = 27
temp = 27
method = trap
totiter = 17
traniter = 0
tranpoints = 0
accept = 0
rejected = 0
matrix size = 30
fillins = 38
solver = Normal
Matrix Compiler1:     196 opcodes
Matrix Compiler2: 3.11 KB object code size
