Circuit: * C:\Users\Lukas\Documents\AS3394 spice files\MFB_Maybe_Wrong_K (used positive value).asc

Direct Newton iteration for .op point succeeded.

Date: Sat Aug 20 22:46:22 2022
Total elapsed time: 0.037 seconds.

tnom = 27
temp = 27
method = trap
totiter = 43
traniter = 0
tranpoints = 0
accept = 0
rejected = 0
matrix size = 39
fillins = 29
solver = Normal
Matrix Compiler1:     176 opcodes
Matrix Compiler2:     287 opcodes
