Circuit: * C:\Users\Lukas\Documents\AS3394 spice files\MFB_Duty_Sim.asc

Direct Newton iteration failed to find .op point.  (Use ".option noopiter" to skip.)
Starting Gmin stepping
Gmin = 10
Gmin = 1.07374
Gmin = 0.115292
Gmin = 0.0123794
Gmin = 0.00132923
Gmin = 0.000142725
Gmin = 1.5325e-005
Gmin = 1.6455e-006
Gmin = 1.76685e-007
Gmin = 1.89714e-008
Gmin = 2.03704e-009
Gmin = 2.18725e-010
Gmin = 2.34854e-011
Gmin = 2.52173e-012
Gmin = 2.70769e-013
Gmin = 0
Gmin stepping succeeded in finding the operating point.


Date: Sun Aug 21 00:46:12 2022
Total elapsed time: 0.264 seconds.

tnom = 27
temp = 27
method = modified trap
totiter = 40566
traniter = 40087
tranpoints = 20044
accept = 15305
rejected = 4739
matrix size = 41
fillins = 36
solver = Normal
Matrix Compiler1: 3.49 KB object code size  0.8/0.2/[0.2]
Matrix Compiler2: 3.88 KB object code size  0.3/0.3/[0.2]

