Circuit: * C:\Users\Lukas\Documents\RP2040_AS3394\spice files\MFB_Duty_Sim_2_stage.asc

WARNING: Less than two connections to node NC_01.  This node is used by V4.
Direct Newton iteration failed to find .op point.  (Use ".option noopiter" to skip.)
Starting Gmin stepping
Gmin = 10
Gmin = 1.07374
Gmin = 0.115292
Gmin = 0.0123794
Gmin = 0.00132923
vernier = 0.5
vernier = 0.25
vernier = 0.125
vernier = 0.0625
Gmin = 0.00100083
vernier = 0.03125
vernier = 0.015625
vernier = 0.0078125
vernier = 0.00390625
vernier = 0.00195313
Gmin = 0.00100083
vernier = 0.000976563
vernier = 0.000488281
Gmin = 0
Gmin stepping failed

Starting source stepping with srcstepmethod=0
Source Step = 3.0303%
Source Step = 33.3333%
Source Step = 63.6364%
Source Step = 93.9394%
Source Step = 93.9542%
Source Step = 93.9838%
Source Step = 94.0134%
Source Step = 94.043%
Source Step = 94.0726%
vernier = 0.00146484
Source Step = 94.1051%
Source Step = 94.1495%
Source Step = 94.1939%
Source Step = 94.2383%
Source Step = 94.2827%
vernier = 0.00219727
Source Step = 94.3293%
Source Step = 94.3959%
Source Step = 94.4624%
Source Step = 94.529%
Source Step = 94.5956%
Source Step = 94.6622%
vernier = 0.0032959
Source Step = 94.7621%
Source Step = 94.8619%
Source Step = 94.9618%
Source Step = 95.0617%
Source Step = 95.1616%
vernier = 0.00494385
Source Step = 95.3064%
Source Step = 95.4562%
Source Step = 95.606%
Source Step = 95.7558%
Source Step = 95.9057%
vernier = 0.00741577
Source Step = 96.1154%
Source Step = 96.3401%
Source Step = 96.5648%
Source Step = 96.7896%
Source Step = 97.0143%
vernier = 0.0111237
Source Step = 97.3176%
Source Step = 97.6547%
Source Step = 97.9918%
Source Step = 98.3289%
Source Step = 98.666%
vernier = 0.0166855
Source Step = 99.1042%
Source Step = 99.6098%
Source stepping succeeded in finding the operating point.


Date: Tue Aug 30 22:40:01 2022
Total elapsed time: 0.170 seconds.

tnom = 27
temp = 27
method = trap
totiter = 4192
traniter = 0
tranpoints = 0
accept = 0
rejected = 0
matrix size = 75
fillins = 213
solver = Normal
Matrix Compiler1:     942 opcodes
Matrix Compiler2: 9.72 KB object code size  0.5/0.6/[0.5]

