Circuit: * C:\Users\Lukas\Documents\AS3394 spice files\sallen key low pass.asc

Direct Newton iteration for .op point succeeded.

Date: Sat Aug 20 19:08:05 2022
Total elapsed time: 0.031 seconds.

tnom = 27
temp = 27
method = modified trap
totiter = 5483
traniter = 5463
tranpoints = 1641
accept = 1477
rejected = 164
matrix size = 38
fillins = 9
solver = Normal
Matrix Compiler1: 1.72 KB object code size  0.4/0.1/[0.1]
Matrix Compiler2: off  [0.1]/0.2/0.2

