Circuit: * C:\Users\Lukas\Documents\AS3394 spice files\VCO_PWM_Sallen_Key.asc

Direct Newton iteration for .op point succeeded.

Date: Sat Aug 20 19:21:36 2022
Total elapsed time: 0.023 seconds.

tnom = 27
temp = 27
method = trap
totiter = 20
traniter = 0
tranpoints = 0
accept = 0
rejected = 0
matrix size = 42
fillins = 26
solver = Normal
Matrix Compiler1:     162 opcodes
Matrix Compiler2: 3.65 KB object code size
