Circuit: * C:\Users\Lukas\Documents\RP2040_AS3394\spice files\Draft1.asc


Date: Sun Nov 06 17:34:06 2022
Total elapsed time: 0.018 seconds.

tnom = 27
temp = 27
method = trap
totiter = 0
traniter = 0
tranpoints = 0
accept = 0
rejected = 0
matrix size = 5
fillins = 0
solver = Normal

