Circuit: * C:\Users\Lukas\Documents\RP2040_AS3394\spice files\Draft1.asc

Limiting fall time of source v1 to 0.1
.OP point found by inspection.

Date: Wed Oct 19 01:32:27 2022
Total elapsed time: 0.025 seconds.

tnom = 27
temp = 27
method = modified trap
totiter = 2150
traniter = 2150
tranpoints = 1076
accept = 1073
rejected = 3
matrix size = 3
fillins = 0
solver = Normal
Matrix Compiler1: 86 bytes object code size  0.0/0.0/[0.0]
Matrix Compiler2: off  [0.0]/0.0/0.0

