Circuit: * C:\Users\Lukas\Documents\RP2040_AS3394\spice files\Draft2.asc

Direct Newton iteration for .op point succeeded.

Date: Wed Aug 31 17:07:35 2022
Total elapsed time: 0.215 seconds.

tnom = 27
temp = 27
method = modified trap
totiter = 48714
traniter = 48703
tranpoints = 24253
accept = 19425
rejected = 4828
matrix size = 41
fillins = 51
solver = Normal
Matrix Compiler1:     258 opcodes  0.7/[0.2]/0.3
Matrix Compiler2: off  [0.2]/0.3/0.2

