Circuit: * C:\Users\Lukas\Documents\RP2040_AS3394\spice files\Draft1.asc

WARNING: Less than two connections to node 6.5V.  This node is used by V1.
WARNING: Less than two connections to node -6.5V.  This node is used by V2.

Date: Sat Sep 10 19:35:15 2022
Total elapsed time: 0.049 seconds.

tnom = 27
temp = 27
method = trap
totiter = 0
traniter = 0
tranpoints = 0
accept = 0
rejected = 0
matrix size = 7
fillins = 0
solver = Normal

