Circuit: * C:\Users\Lukas\Documents\RP2040_AS3394\spice files\Mixer.asc

Direct Newton iteration failed to find .op point.  (Use ".option noopiter" to skip.)
Starting Gmin stepping
Gmin = 10
Gmin = 1.07374
Gmin = 0.115292
Gmin = 0.0123794
Gmin = 0.00132923
Gmin = 0.000142725
Gmin = 1.5325e-005
Gmin = 1.6455e-006
Gmin = 1.76685e-007
Gmin = 1.89714e-008
Gmin = 2.03704e-009
Gmin = 2.18725e-010
Gmin = 2.34854e-011
Gmin = 2.52173e-012
Gmin = 2.70769e-013
Gmin = 0
Gmin stepping succeeded in finding the operating point.

Heightened Def Con from 0.0696974 to 0.0696974
Heightened Def Con from 0.0696974 to 0.0696974
Heightened Def Con from 0.070025 to 0.070025
Heightened Def Con from 0.070451 to 0.070451
Heightened Def Con from 0.0709769 to 0.0709769
Heightened Def Con from 0.071534 to 0.071534
Heightened Def Con from 0.072091 to 0.072091
Heightened Def Con from 0.0726481 to 0.0726481
Heightened Def Con from 0.0734017 to 0.0734017
Heightened Def Con from 0.0737294 to 0.0737294
Heightened Def Con from 0.0739572 to 0.0739572
Heightened Def Con from 0.0747436 to 0.0747436
Heightened Def Con from 0.0750074 to 0.0750074
Heightened Def Con from 0.0751384 to 0.0751384
Heightened Def Con from 0.0754333 to 0.0754333
Heightened Def Con from 0.0765147 to 0.0765147
Heightened Def Con from 0.0770062 to 0.0770062
Heightened Def Con from 0.0771045 to 0.0771045
Heightened Def Con from 0.0773339 to 0.0773339
Heightened Def Con from 0.0776288 to 0.0776288
Heightened Def Con from 0.0777255 to 0.0777255
Heightened Def Con from 0.0778582 to 0.0778582
Heightened Def Con from 0.0781187 to 0.0781187
Heightened Def Con from 0.0791673 to 0.0791673
Heightened Def Con from 0.0794638 to 0.0794638
Heightened Def Con from 0.0805779 to 0.0805779
Heightened Def Con from 0.0806435 to 0.0806435
Heightened Def Con from 0.0814938 to 0.0814938
Heightened Def Con from 0.0816576 to 0.0816576
Heightened Def Con from 0.0819525 to 0.0819525
Heightened Def Con from 0.0820525 to 0.0820525
Heightened Def Con from 0.0823458 to 0.0823458
Heightened Def Con from 0.0838203 to 0.0838203
Heightened Def Con from 0.0839514 to 0.0839514
Heightened Def Con from 0.0850344 to 0.0850344
Heightened Def Con from 0.0858208 to 0.0858208
Heightened Def Con from 0.0859175 to 0.0859175
Heightened Def Con from 0.0864745 to 0.0864745
Heightened Def Con from 0.0867694 to 0.0867694
Heightened Def Con from 0.0874592 to 0.0874592
Heightened Def Con from 0.0885733 to 0.0885733
Heightened Def Con from 0.0889977 to 0.0889977
Heightened Def Con from 0.0892598 to 0.0892598
Heightened Def Con from 0.0893253 to 0.0893253
Heightened Def Con from 0.0893597 to 0.0893597
Heightened Def Con from 0.089753 to 0.089753
Heightened Def Con from 0.0903084 to 0.0903084
Heightened Def Con from 0.0905722 to 0.0905722
Heightened Def Con from 0.091062 to 0.091062
Heightened Def Con from 0.0914553 to 0.0914553
Heightened Def Con from 0.0917518 to 0.0917518
Heightened Def Con from 0.09234 to 0.09234
Heightened Def Con from 0.0931592 to 0.0931592
Heightened Def Con from 0.0932247 to 0.0932247
Heightened Def Con from 0.0938162 to 0.0938162
Heightened Def Con from 0.0939145 to 0.0939145
Heightened Def Con from 0.0942422 to 0.0942422
Heightened Def Con from 0.0945027 to 0.0945027
Heightened Def Con from 0.0950286 to 0.0950286
Heightened Def Con from 0.0957151 to 0.0957151
Heightened Def Con from 0.0966654 to 0.0966654
Heightened Def Con from 0.0969931 to 0.0969931
Heightened Def Con from 0.0973879 to 0.0973879
Heightened Def Con from 0.0979433 to 0.0979433
Heightened Def Con from 0.0980105 to 0.0980105
Heightened Def Con from 0.0981399 to 0.0981399
Heightened Def Con from 0.0984365 to 0.0984365
Heightened Def Con from 0.0985004 to 0.0985004
Heightened Def Con from 0.0989264 to 0.0989264
Heightened Def Con from 0.0994195 to 0.0994195
Heightened Def Con from 0.0996489 to 0.0996489
Heightened Def Con from 0.100697 to 0.100697
Heightened Def Con from 0.100892 to 0.100892
Heightened Def Con from 0.101187 to 0.101187
Heightened Def Con from 0.101582 to 0.101582
Heightened Def Con from 0.101812 to 0.101812
Heightened Def Con from 0.101877 to 0.101877
Heightened Def Con from 0.102172 to 0.102172
Heightened Def Con from 0.102238 to 0.102238
Heightened Def Con from 0.102565 to 0.102565
Heightened Def Con from 0.102762 to 0.102762
Heightened Def Con from 0.102891 to 0.102891
Heightened Def Con from 0.103219 to 0.103219
Heightened Def Con from 0.103678 to 0.103678
Heightened Def Con from 0.10381 to 0.10381
Heightened Def Con from 0.104793 to 0.104793
Heightened Def Con from 0.104923 to 0.104923
Heightened Def Con from 0.105152 to 0.105152
Heightened Def Con from 0.105351 to 0.105351
Heightened Def Con from 0.105447 to 0.105447
Heightened Def Con from 0.105547 to 0.105547
Heightened Def Con from 0.105644 to 0.105644
Heightened Def Con from 0.106104 to 0.106104
Heightened Def Con from 0.106235 to 0.106235
Heightened Def Con from 0.107315 to 0.107315
Heightened Def Con from 0.107349 to 0.107349
Heightened Def Con from 0.107513 to 0.107513
Heightened Def Con from 0.107708 to 0.107708
Heightened Def Con from 0.108003 to 0.108003
Heightened Def Con from 0.108496 to 0.108496
Heightened Def Con from 0.108691 to 0.108691
Heightened Def Con from 0.108758 to 0.108758
Heightened Def Con from 0.108922 to 0.108922
Heightened Def Con from 0.109086 to 0.109086
Heightened Def Con from 0.109281 to 0.109281
Heightened Def Con from 0.109545 to 0.109545
Heightened Def Con from 0.1102 to 0.1102
Heightened Def Con from 0.110297 to 0.110297
Heightened Def Con from 0.110495 to 0.110495
Heightened Def Con from 0.110561 to 0.110561
Heightened Def Con from 0.110756 to 0.110756
Heightened Def Con from 0.111347 to 0.111347
Heightened Def Con from 0.111411 to 0.111411
Heightened Def Con from 0.11174 to 0.11174
Heightened Def Con from 0.111935 to 0.111935
Heightened Def Con from 0.112789 to 0.112789
Heightened Def Con from 0.113313 to 0.113313
Heightened Def Con from 0.114034 to 0.114034
Heightened Def Con from 0.114163 to 0.114163
Heightened Def Con from 0.11446 to 0.11446
Heightened Def Con from 0.114819 to 0.114819
Heightened Def Con from 0.115015 to 0.115015
Heightened Def Con from 0.115081 to 0.115081
Heightened Def Con from 0.115769 to 0.115769
Heightened Def Con from 0.116031 to 0.116031
Heightened Def Con from 0.116326 to 0.116326
Heightened Def Con from 0.116819 to 0.116819
Heightened Def Con from 0.117114 to 0.117114
Heightened Def Con from 0.117244 to 0.117244
Heightened Def Con from 0.117408 to 0.117408
Heightened Def Con from 0.117737 to 0.117737
Heightened Def Con from 0.118294 to 0.118294
Heightened Def Con from 0.118522 to 0.118522
Heightened Def Con from 0.11872 to 0.11872
Heightened Def Con from 0.119439 to 0.119439
Heightened Def Con from 0.120094 to 0.120094
Heightened Def Con from 0.120326 to 0.120326
Heightened Def Con from 0.12062 to 0.12062
Heightened Def Con from 0.120783 to 0.120783
Heightened Def Con from 0.120946 to 0.120946
Heightened Def Con from 0.121276 to 0.121276
Heightened Def Con from 0.12144 to 0.12144
Heightened Def Con from 0.121538 to 0.121538
Heightened Def Con from 0.121767 to 0.121767
Heightened Def Con from 0.121833 to 0.121833
Heightened Def Con from 0.121897 to 0.121897
Heightened Def Con from 0.122159 to 0.122159
Heightened Def Con from 0.122324 to 0.122324
Heightened Def Con from 0.122454 to 0.122454
Heightened Def Con from 0.122552 to 0.122552
Heightened Def Con from 0.122586 to 0.122586
Heightened Def Con from 0.122947 to 0.122947
Heightened Def Con from 0.123011 to 0.123011
Heightened Def Con from 0.123209 to 0.123209
Heightened Def Con from 0.123537 to 0.123537
Heightened Def Con from 0.123635 to 0.123635
Heightened Def Con from 0.123699 to 0.123699
Heightened Def Con from 0.123733 to 0.123733
Heightened Def Con from 0.124028 to 0.124028
Heightened Def Con from 0.124092 to 0.124092
Heightened Def Con from 0.124192 to 0.124192
Heightened Def Con from 0.124649 to 0.124649
Heightened Def Con from 0.124715 to 0.124715
Heightened Def Con from 0.125206 to 0.125206
Heightened Def Con from 0.125306 to 0.125306
Heightened Def Con from 0.126058 to 0.126058
Heightened Def Con from 0.126322 to 0.126322
Heightened Def Con from 0.12665 to 0.12665
Heightened Def Con from 0.126912 to 0.126912
Heightened Def Con from 0.127172 to 0.127172
Heightened Def Con from 0.12724 to 0.12724
Heightened Def Con from 0.127336 to 0.127336
Heightened Def Con from 0.127534 to 0.127534
Heightened Def Con from 0.127598 to 0.127598
Heightened Def Con from 0.127731 to 0.127731
Heightened Def Con from 0.128255 to 0.128255
Heightened Def Con from 0.128483 to 0.128483
Heightened Def Con from 0.12855 to 0.12855
Heightened Def Con from 0.128747 to 0.128747
Heightened Def Con from 0.129042 to 0.129042
Heightened Def Con from 0.12914 to 0.12914
Heightened Def Con from 0.130089 to 0.130089
Heightened Def Con from 0.130221 to 0.130221
Heightened Def Con from 0.130713 to 0.130713
Heightened Def Con from 0.131336 to 0.131336
Heightened Def Con from 0.131401 to 0.131401
Heightened Def Con from 0.131596 to 0.131596
Heightened Def Con from 0.131727 to 0.131727
Heightened Def Con from 0.131762 to 0.131762
Heightened Def Con from 0.132514 to 0.132514
Heightened Def Con from 0.132712 to 0.132712
Heightened Def Con from 0.133136 to 0.133136
Heightened Def Con from 0.133171 to 0.133171
Heightened Def Con from 0.133234 to 0.133234
Heightened Def Con from 0.134054 to 0.134054
Heightened Def Con from 0.134121 to 0.134121
Heightened Def Con from 0.13435 to 0.13435
Heightened Def Con from 0.134447 to 0.134447
Heightened Def Con from 0.135661 to 0.135661
Heightened Def Con from 0.135759 to 0.135759
Heightened Def Con from 0.136478 to 0.136478
Heightened Def Con from 0.137463 to 0.137463
Heightened Def Con from 0.138217 to 0.138217
Heightened Def Con from 0.138445 to 0.138445
Heightened Def Con from 0.138576 to 0.138576
Heightened Def Con from 0.138643 to 0.138643
Heightened Def Con from 0.138741 to 0.138741
Heightened Def Con from 0.138807 to 0.138807
Heightened Def Con from 0.139298 to 0.139298
Heightened Def Con from 0.139626 to 0.139626
Heightened Def Con from 0.139723 to 0.139723
Heightened Def Con from 0.139854 to 0.139854
Heightened Def Con from 0.139954 to 0.139954
Heightened Def Con from 0.141263 to 0.141263
Heightened Def Con from 0.141623 to 0.141623
Heightened Def Con from 0.141854 to 0.141854
Heightened Def Con from 0.141984 to 0.141984
Heightened Def Con from 0.142049 to 0.142049
Heightened Def Con from 0.142346 to 0.142346
Heightened Def Con from 0.142442 to 0.142442
Heightened Def Con from 0.142706 to 0.142706
Heightened Def Con from 0.142903 to 0.142903
Heightened Def Con from 0.143361 to 0.143361
Heightened Def Con from 0.143589 to 0.143589
Heightened Def Con from 0.143984 to 0.143984
Heightened Def Con from 0.144703 to 0.144703
Heightened Def Con from 0.144736 to 0.144736
Heightened Def Con from 0.14526 to 0.14526
Heightened Def Con from 0.145655 to 0.145655
Heightened Def Con from 0.146211 to 0.146211
Heightened Def Con from 0.14644 to 0.14644
Heightened Def Con from 0.14654 to 0.14654
Heightened Def Con from 0.146833 to 0.146833
Heightened Def Con from 0.146866 to 0.146866
Heightened Def Con from 0.146964 to 0.146964
Heightened Def Con from 0.147161 to 0.147161
Heightened Def Con from 0.147423 to 0.147423
Heightened Def Con from 0.147523 to 0.147523
Heightened Def Con from 0.147949 to 0.147949
Heightened Def Con from 0.148046 to 0.148046
Heightened Def Con from 0.148242 to 0.148242
Heightened Def Con from 0.148537 to 0.148537
Heightened Def Con from 0.149063 to 0.149063
Heightened Def Con from 0.149192 to 0.149192
Heightened Def Con from 0.149258 to 0.149258
Heightened Def Con from 0.149423 to 0.149423
Heightened Def Con from 0.149553 to 0.149553
Heightened Def Con from 0.149618 to 0.149618
Heightened Def Con from 0.150341 to 0.150341
Heightened Def Con from 0.1508 to 0.1508
Heightened Def Con from 0.151455 to 0.151455
Heightened Def Con from 0.152045 to 0.152045
Heightened Def Con from 0.152504 to 0.152504
Heightened Def Con from 0.152733 to 0.152733
Heightened Def Con from 0.153192 to 0.153192
Heightened Def Con from 0.153323 to 0.153323
Heightened Def Con from 0.15437 to 0.15437
Heightened Def Con from 0.154503 to 0.154503
Heightened Def Con from 0.15506 to 0.15506
Heightened Def Con from 0.155353 to 0.155353
Heightened Def Con from 0.155486 to 0.155486
Heightened Def Con from 0.155975 to 0.155975
Heightened Def Con from 0.15637 to 0.15637
Heightened Def Con from 0.156567 to 0.156567
Heightened Def Con from 0.156696 to 0.156696
Heightened Def Con from 0.156795 to 0.156795
Heightened Def Con from 0.157026 to 0.157026
Heightened Def Con from 0.157188 to 0.157188
Heightened Def Con from 0.157779 to 0.157779
Heightened Def Con from 0.157843 to 0.157843
Heightened Def Con from 0.158041 to 0.158041
Heightened Def Con from 0.158336 to 0.158336
Heightened Def Con from 0.158728 to 0.158728
Heightened Def Con from 0.158959 to 0.158959
Heightened Def Con from 0.159023 to 0.159023
Heightened Def Con from 0.159352 to 0.159352
Heightened Def Con from 0.15945 to 0.15945
Heightened Def Con from 0.159777 to 0.159777
Heightened Def Con from 0.15994 to 0.15994
Heightened Def Con from 0.159975 to 0.159975
Heightened Def Con from 0.16053 to 0.16053
Heightened Def Con from 0.16086 to 0.16086
Heightened Def Con from 0.160923 to 0.160923
Heightened Def Con from 0.160991 to 0.160991
Heightened Def Con from 0.161054 to 0.161054
Heightened Def Con from 0.161154 to 0.161154
Heightened Def Con from 0.161515 to 0.161515
Heightened Def Con from 0.161677 to 0.161677
Heightened Def Con from 0.161777 to 0.161777
Heightened Def Con from 0.162103 to 0.162103
Heightened Def Con from 0.162367 to 0.162367
Heightened Def Con from 0.162726 to 0.162726
Heightened Def Con from 0.162826 to 0.162826
Heightened Def Con from 0.162891 to 0.162891
Heightened Def Con from 0.163252 to 0.163252
Heightened Def Con from 0.163743 to 0.163743
Heightened Def Con from 0.16394 to 0.16394
Heightened Def Con from 0.164333 to 0.164333
Heightened Def Con from 0.164397 to 0.164397
Heightened Def Con from 0.164857 to 0.164857
Heightened Def Con from 0.165021 to 0.165021
Heightened Def Con from 0.165644 to 0.165644
Heightened Def Con from 0.166068 to 0.166068
Heightened Def Con from 0.166527 to 0.166527
Heightened Def Con from 0.166723 to 0.166723
Heightened Def Con from 0.166922 to 0.166922
Heightened Def Con from 0.167182 to 0.167182
Heightened Def Con from 0.167544 to 0.167544
Heightened Def Con from 0.167739 to 0.167739
Heightened Def Con from 0.167839 to 0.167839
Heightened Def Con from 0.168067 to 0.168067
Heightened Def Con from 0.168494 to 0.168494
Heightened Def Con from 0.168558 to 0.168558
Heightened Def Con from 0.168591 to 0.168591
Heightened Def Con from 0.168789 to 0.168789
Heightened Def Con from 0.169084 to 0.169084
Heightened Def Con from 0.169476 to 0.169476
Heightened Def Con from 0.16964 to 0.16964
Heightened Def Con from 0.169902 to 0.169902
Heightened Def Con from 0.170002 to 0.170002
Heightened Def Con from 0.170262 to 0.170262
Heightened Def Con from 0.170297 to 0.170297
Heightened Def Con from 0.170493 to 0.170493
Heightened Def Con from 0.171018 to 0.171018
Heightened Def Con from 0.171082 to 0.171082
Heightened Def Con from 0.171214 to 0.171214
Heightened Def Con from 0.171345 to 0.171345
Heightened Def Con from 0.171444 to 0.171444
Heightened Def Con from 0.172425 to 0.172425
Heightened Def Con from 0.172492 to 0.172492
Heightened Def Con from 0.172556 to 0.172556
Heightened Def Con from 0.172884 to 0.172884
Heightened Def Con from 0.173179 to 0.173179
Heightened Def Con from 0.173279 to 0.173279
Heightened Def Con from 0.174065 to 0.174065
Heightened Def Con from 0.174294 to 0.174294
Heightened Def Con from 0.174491 to 0.174491
Heightened Def Con from 0.174981 to 0.174981
Heightened Def Con from 0.17554 to 0.17554
Heightened Def Con from 0.175605 to 0.175605
Heightened Def Con from 0.175736 to 0.175736
Heightened Def Con from 0.176029 to 0.176029
Heightened Def Con from 0.176228 to 0.176228
Heightened Def Con from 0.176292 to 0.176292
Heightened Def Con from 0.176326 to 0.176326
Heightened Def Con from 0.176392 to 0.176392
Heightened Def Con from 0.176521 to 0.176521
Heightened Def Con from 0.176719 to 0.176719
Heightened Def Con from 0.177702 to 0.177702
Heightened Def Con from 0.177768 to 0.177768
Heightened Def Con from 0.178161 to 0.178161
Heightened Def Con from 0.178258 to 0.178258
Heightened Def Con from 0.178587 to 0.178587
Heightened Def Con from 0.178782 to 0.178782
Heightened Def Con from 0.179144 to 0.179144
Heightened Def Con from 0.179505 to 0.179505
Heightened Def Con from 0.179865 to 0.179865
Heightened Def Con from 0.18006 to 0.18006
Heightened Def Con from 0.180388 to 0.180388
Heightened Def Con from 0.180455 to 0.180455
Heightened Def Con from 0.18075 to 0.18075
Heightened Def Con from 0.180846 to 0.180846
Heightened Def Con from 0.181436 to 0.181436
Heightened Def Con from 0.181798 to 0.181798
Heightened Def Con from 0.182059 to 0.182059
Heightened Def Con from 0.182355 to 0.182355
Heightened Def Con from 0.182617 to 0.182617
Heightened Def Con from 0.183109 to 0.183109
Heightened Def Con from 0.184025 to 0.184025
Heightened Def Con from 0.184942 to 0.184942
Heightened Def Con from 0.185272 to 0.185272
Heightened Def Con from 0.185336 to 0.185336
Heightened Def Con from 0.185796 to 0.185796
Heightened Def Con from 0.186124 to 0.186124
Heightened Def Con from 0.186419 to 0.186419
Heightened Def Con from 0.186515 to 0.186515
Heightened Def Con from 0.18655 to 0.18655
Heightened Def Con from 0.186614 to 0.186614
Heightened Def Con from 0.187369 to 0.187369
Heightened Def Con from 0.1875 to 0.1875
Heightened Def Con from 0.188186 to 0.188186
Heightened Def Con from 0.188516 to 0.188516
Heightened Def Con from 0.188745 to 0.188745
Heightened Def Con from 0.189138 to 0.189138
Heightened Def Con from 0.189366 to 0.189366
Heightened Def Con from 0.189563 to 0.189563
Heightened Def Con from 0.189728 to 0.189728
Heightened Def Con from 0.189826 to 0.189826
Heightened Def Con from 0.189892 to 0.189892
Heightened Def Con from 0.190121 to 0.190121
Heightened Def Con from 0.190744 to 0.190744
Heightened Def Con from 0.191004 to 0.191004
Heightened Def Con from 0.191432 to 0.191432
Heightened Def Con from 0.191496 to 0.191496
Heightened Def Con from 0.191596 to 0.191596
Heightened Def Con from 0.192055 to 0.192055
Heightened Def Con from 0.192448 to 0.192448
Heightened Def Con from 0.192743 to 0.192743
Heightened Def Con from 0.192807 to 0.192807
Heightened Def Con from 0.193693 to 0.193693
Heightened Def Con from 0.19389 to 0.19389
Heightened Def Con from 0.194086 to 0.194086
Heightened Def Con from 0.194545 to 0.194545
Heightened Def Con from 0.194774 to 0.194774
Heightened Def Con from 0.195135 to 0.195135
Heightened Def Con from 0.195233 to 0.195233
Heightened Def Con from 0.195559 to 0.195559
Heightened Def Con from 0.195985 to 0.195985
Heightened Def Con from 0.196346 to 0.196346
Heightened Def Con from 0.196642 to 0.196642
Heightened Def Con from 0.196706 to 0.196706
Heightened Def Con from 0.196839 to 0.196839
Heightened Def Con from 0.197003 to 0.197003
Heightened Def Con from 0.197134 to 0.197134
Heightened Def Con from 0.197199 to 0.197199
Heightened Def Con from 0.197263 to 0.197263
Heightened Def Con from 0.197427 to 0.197427
Heightened Def Con from 0.197494 to 0.197494
Heightened Def Con from 0.197691 to 0.197691
Heightened Def Con from 0.197756 to 0.197756
Heightened Def Con from 0.19851 to 0.19851
Heightened Def Con from 0.198903 to 0.198903
Heightened Def Con from 0.199065 to 0.199065
Heightened Def Con from 0.199198 to 0.199198
Heightened Def Con from 0.199624 to 0.199624
Heightened Def Con from 0.19969 to 0.19969
Heightened Def Con from 0.199755 to 0.199755
Heightened Def Con from 0.199917 to 0.199917
Heightened Def Con from 0.20005 to 0.20005
Heightened Def Con from 0.200507 to 0.200507
Heightened Def Con from 0.20064 to 0.20064
Heightened Def Con from 0.200704 to 0.200704
Heightened Def Con from 0.200804 to 0.200804
Heightened Def Con from 0.200869 to 0.200869
Heightened Def Con from 0.200935 to 0.200935
Heightened Def Con from 0.201031 to 0.201031
Heightened Def Con from 0.201425 to 0.201425
Heightened Def Con from 0.201589 to 0.201589
Heightened Def Con from 0.201721 to 0.201721
Heightened Def Con from 0.202442 to 0.202442
Heightened Def Con from 0.202508 to 0.202508
Heightened Def Con from 0.202803 to 0.202803
Heightened Def Con from 0.202866 to 0.202866
Heightened Def Con from 0.202934 to 0.202934
Heightened Def Con from 0.202998 to 0.202998
Heightened Def Con from 0.203096 to 0.203096
Heightened Def Con from 0.203425 to 0.203425
Heightened Def Con from 0.203981 to 0.203981
Heightened Def Con from 0.204801 to 0.204801
Heightened Def Con from 0.205096 to 0.205096
Heightened Def Con from 0.205162 to 0.205162
Heightened Def Con from 0.205293 to 0.205293
Heightened Def Con from 0.205555 to 0.205555
Heightened Def Con from 0.205881 to 0.205881
Heightened Def Con from 0.205916 to 0.205916
Heightened Def Con from 0.205981 to 0.205981
Heightened Def Con from 0.206047 to 0.206047
Heightened Def Con from 0.20611 to 0.20611
Heightened Def Con from 0.20621 to 0.20621
Heightened Def Con from 0.206274 to 0.206274
Heightened Def Con from 0.206538 to 0.206538
Heightened Def Con from 0.206602 to 0.206602
Heightened Def Con from 0.206897 to 0.206897
Heightened Def Con from 0.206931 to 0.206931
Heightened Def Con from 0.20703 to 0.20703
Heightened Def Con from 0.207947 to 0.207947
Heightened Def Con from 0.208144 to 0.208144
Heightened Def Con from 0.208306 to 0.208306
Heightened Def Con from 0.208832 to 0.208832
Heightened Def Con from 0.208929 to 0.208929
Heightened Def Con from 0.209356 to 0.209356
Heightened Def Con from 0.209422 to 0.209422
Heightened Def Con from 0.209553 to 0.209553
Heightened Def Con from 0.209717 to 0.209717
Heightened Def Con from 0.209944 to 0.209944
Heightened Def Con from 0.210143 to 0.210143
Heightened Def Con from 0.210667 to 0.210667
Heightened Def Con from 0.210995 to 0.210995
Heightened Def Con from 0.211126 to 0.211126
Heightened Def Con from 0.211224 to 0.211224
Heightened Def Con from 0.212042 to 0.212042
Heightened Def Con from 0.212273 to 0.212273
Heightened Def Con from 0.212731 to 0.212731
Heightened Def Con from 0.212862 to 0.212862
Heightened Def Con from 0.213092 to 0.213092
Heightened Def Con from 0.213352 to 0.213352
Heightened Def Con from 0.213387 to 0.213387
Heightened Def Con from 0.213649 to 0.213649
Heightened Def Con from 0.213845 to 0.213845
Heightened Def Con from 0.213909 to 0.213909
Heightened Def Con from 0.214042 to 0.214042
Heightened Def Con from 0.214139 to 0.214139
Heightened Def Con from 0.214302 to 0.214302
Heightened Def Con from 0.214337 to 0.214337
Heightened Def Con from 0.214435 to 0.214435
Heightened Def Con from 0.215123 to 0.215123
Heightened Def Con from 0.215222 to 0.215222
Heightened Def Con from 0.215844 to 0.215844
Heightened Def Con from 0.217188 to 0.217188
Heightened Def Con from 0.217284 to 0.217284
Heightened Def Con from 0.217941 to 0.217941
Heightened Def Con from 0.218661 to 0.218661
Heightened Def Con from 0.219023 to 0.219023
Heightened Def Con from 0.219152 to 0.219152
Heightened Def Con from 0.219185 to 0.219185
Heightened Def Con from 0.21925 to 0.21925
Heightened Def Con from 0.219678 to 0.219678
Heightened Def Con from 0.220465 to 0.220465
Heightened Def Con from 0.220759 to 0.220759
Heightened Def Con from 0.221087 to 0.221087
Heightened Def Con from 0.221675 to 0.221675
Heightened Def Con from 0.221806 to 0.221806
Heightened Def Con from 0.222037 to 0.222037
Heightened Def Con from 0.222134 to 0.222134
Heightened Def Con from 0.222398 to 0.222398
Heightened Def Con from 0.222789 to 0.222789
Heightened Def Con from 0.223446 to 0.223446
Heightened Def Con from 0.2242 to 0.2242
Heightened Def Con from 0.224298 to 0.224298
Heightened Def Con from 0.224429 to 0.224429
Heightened Def Con from 0.224788 to 0.224788
Heightened Def Con from 0.224921 to 0.224921
Heightened Def Con from 0.22515 to 0.22515
Heightened Def Con from 0.225247 to 0.225247
Heightened Def Con from 0.225347 to 0.225347
Heightened Def Con from 0.225509 to 0.225509
Heightened Def Con from 0.226197 to 0.226197
Heightened Def Con from 0.226625 to 0.226625
Heightened Def Con from 0.226822 to 0.226822
Heightened Def Con from 0.227116 to 0.227116
Heightened Def Con from 0.227213 to 0.227213
Heightened Def Con from 0.227311 to 0.227311
Heightened Def Con from 0.227706 to 0.227706
Heightened Def Con from 0.228165 to 0.228165
Heightened Def Con from 0.228229 to 0.228229
Heightened Def Con from 0.228657 to 0.228657
Heightened Def Con from 0.22872 to 0.22872
Heightened Def Con from 0.22882 to 0.22882
Heightened Def Con from 0.229048 to 0.229048
Heightened Def Con from 0.229214 to 0.229214
Heightened Def Con from 0.229279 to 0.229279
Heightened Def Con from 0.229541 to 0.229541
Heightened Def Con from 0.230033 to 0.230033
Heightened Def Con from 0.230392 to 0.230392
Heightened Def Con from 0.230557 to 0.230557
Heightened Def Con from 0.230819 to 0.230819
Heightened Def Con from 0.232358 to 0.232358
Heightened Def Con from 0.232392 to 0.232392
Heightened Def Con from 0.232456 to 0.232456
Heightened Def Con from 0.232687 to 0.232687
Heightened Def Con from 0.233079 to 0.233079
Heightened Def Con from 0.233308 to 0.233308
Heightened Def Con from 0.233341 to 0.233341
Heightened Def Con from 0.233439 to 0.233439
Heightened Def Con from 0.233801 to 0.233801
Heightened Def Con from 0.233932 to 0.233932
Heightened Def Con from 0.234029 to 0.234029
Heightened Def Con from 0.234162 to 0.234162
Heightened Def Con from 0.234293 to 0.234293
Heightened Def Con from 0.234522 to 0.234522
Heightened Def Con from 0.234586 to 0.234586
Heightened Def Con from 0.234784 to 0.234784
Heightened Def Con from 0.235243 to 0.235243
Heightened Def Con from 0.235307 to 0.235307
Heightened Def Con from 0.236159 to 0.236159
Heightened Def Con from 0.236519 to 0.236519
Heightened Def Con from 0.23675 to 0.23675
Heightened Def Con from 0.236814 to 0.236814
Heightened Def Con from 0.236912 to 0.236912
Heightened Def Con from 0.237012 to 0.237012
Heightened Def Con from 0.237406 to 0.237406
Heightened Def Con from 0.238126 to 0.238126
Heightened Def Con from 0.238258 to 0.238258
Heightened Def Con from 0.238815 to 0.238815
Heightened Def Con from 0.239306 to 0.239306
Heightened Def Con from 0.239535 to 0.239535
Heightened Def Con from 0.240355 to 0.240355
Heightened Def Con from 0.241239 to 0.241239
Heightened Def Con from 0.241469 to 0.241469
Heightened Def Con from 0.241533 to 0.241533
Heightened Def Con from 0.241796 to 0.241796
Heightened Def Con from 0.241862 to 0.241862
Heightened Def Con from 0.242419 to 0.242419
Heightened Def Con from 0.242485 to 0.242485
Heightened Def Con from 0.242549 to 0.242549
Heightened Def Con from 0.242943 to 0.242943
Heightened Def Con from 0.243402 to 0.243402
Heightened Def Con from 0.243566 to 0.243566
Heightened Def Con from 0.243761 to 0.243761
Heightened Def Con from 0.24399 to 0.24399
Heightened Def Con from 0.244121 to 0.244121
Heightened Def Con from 0.244547 to 0.244547
Heightened Def Con from 0.245137 to 0.245137
Heightened Def Con from 0.24586 to 0.24586
Heightened Def Con from 0.245956 to 0.245956
Heightened Def Con from 0.246743 to 0.246743
Heightened Def Con from 0.246777 to 0.246777
Heightened Def Con from 0.246843 to 0.246843
Heightened Def Con from 0.246941 to 0.246941
Heightened Def Con from 0.247007 to 0.247007
Heightened Def Con from 0.24707 to 0.24707
Heightened Def Con from 0.247203 to 0.247203
Heightened Def Con from 0.247267 to 0.247267
Heightened Def Con from 0.247302 to 0.247302
Heightened Def Con from 0.247531 to 0.247531
Heightened Def Con from 0.247988 to 0.247988
Heightened Def Con from 0.248088 to 0.248088
Heightened Def Con from 0.24835 to 0.24835
Heightened Def Con from 0.248579 to 0.248579
Heightened Def Con from 0.248743 to 0.248743
Heightened Def Con from 0.248842 to 0.248842
Heightened Def Con from 0.248906 to 0.248906
Heightened Def Con from 0.249399 to 0.249399
Heightened Def Con from 0.249659 to 0.249659
Heightened Def Con from 0.249792 to 0.249792
Heightened Def Con from 0.249954 to 0.249954
Heightened Def Con from 0.250906 to 0.250906
Heightened Def Con from 0.251266 to 0.251266
Heightened Def Con from 0.251363 to 0.251363
Heightened Def Con from 0.251592 to 0.251592
Heightened Def Con from 0.251627 to 0.251627
Heightened Def Con from 0.251756 to 0.251756
Heightened Def Con from 0.251987 to 0.251987
Heightened Def Con from 0.25251 to 0.25251
Heightened Def Con from 0.253233 to 0.253233
Heightened Def Con from 0.253395 to 0.253395
Heightened Def Con from 0.253822 to 0.253822
Heightened Def Con from 0.254183 to 0.254183
Heightened Def Con from 0.254247 to 0.254247
Heightened Def Con from 0.254478 to 0.254478
Heightened Def Con from 0.255099 to 0.255099
Heightened Def Con from 0.255131 to 0.255131
Heightened Def Con from 0.255199 to 0.255199
Heightened Def Con from 0.25559 to 0.25559
Heightened Def Con from 0.255787 to 0.255787
Heightened Def Con from 0.255918 to 0.255918
Heightened Def Con from 0.255985 to 0.255985
Heightened Def Con from 0.256213 to 0.256213
Heightened Def Con from 0.256278 to 0.256278
Heightened Def Con from 0.256608 to 0.256608
Heightened Def Con from 0.256739 to 0.256739
Heightened Def Con from 0.256934 to 0.256934
Heightened Def Con from 0.257589 to 0.257589
Heightened Def Con from 0.257622 to 0.257622
Heightened Def Con from 0.257753 to 0.257753
Heightened Def Con from 0.257886 to 0.257886
Heightened Def Con from 0.257951 to 0.257951
Heightened Def Con from 0.258146 to 0.258146
Heightened Def Con from 0.258344 to 0.258344
Heightened Def Con from 0.258541 to 0.258541
Heightened Def Con from 0.259327 to 0.259327
Heightened Def Con from 0.259424 to 0.259424
Heightened Def Con from 0.259458 to 0.259458
Heightened Def Con from 0.259522 to 0.259522
Heightened Def Con from 0.259557 to 0.259557
Heightened Def Con from 0.260145 to 0.260145
Heightened Def Con from 0.260343 to 0.260343
Heightened Def Con from 0.260474 to 0.260474
Heightened Def Con from 0.260573 to 0.260573
Heightened Def Con from 0.260769 to 0.260769
Heightened Def Con from 0.261523 to 0.261523
Heightened Def Con from 0.261587 to 0.261587
Heightened Def Con from 0.262045 to 0.262045
Heightened Def Con from 0.262408 to 0.262408
Heightened Def Con from 0.262832 to 0.262832
Heightened Def Con from 0.26316 to 0.26316
Heightened Def Con from 0.263487 to 0.263487
Heightened Def Con from 0.26421 to 0.26421
Heightened Def Con from 0.264306 to 0.264306
Heightened Def Con from 0.264701 to 0.264701
Heightened Def Con from 0.265093 to 0.265093
Heightened Def Con from 0.265553 to 0.265553
Heightened Def Con from 0.265617 to 0.265617
Heightened Def Con from 0.265715 to 0.265715
Heightened Def Con from 0.265881 to 0.265881
Heightened Def Con from 0.266176 to 0.266176
Heightened Def Con from 0.266602 to 0.266602
Heightened Def Con from 0.267028 to 0.267028
Heightened Def Con from 0.267159 to 0.267159
Heightened Def Con from 0.267452 to 0.267452
Heightened Def Con from 0.267878 to 0.267878
Heightened Def Con from 0.268435 to 0.268435
Heightened Def Con from 0.269158 to 0.269158
Heightened Def Con from 0.269418 to 0.269418
Heightened Def Con from 0.269453 to 0.269453
Heightened Def Con from 0.269649 to 0.269649
Heightened Def Con from 0.270141 to 0.270141
Heightened Def Con from 0.270337 to 0.270337
Heightened Def Con from 0.270501 to 0.270501
Heightened Def Con from 0.270696 to 0.270696
Heightened Def Con from 0.270796 to 0.270796
Heightened Def Con from 0.271253 to 0.271253
Heightened Def Con from 0.271646 to 0.271646
Heightened Def Con from 0.272009 to 0.272009
Heightened Def Con from 0.27214 to 0.27214
Heightened Def Con from 0.272795 to 0.272795
Heightened Def Con from 0.272859 to 0.272859
Heightened Def Con from 0.273645 to 0.273645
Heightened Def Con from 0.273776 to 0.273776
Heightened Def Con from 0.274138 to 0.274138
Heightened Def Con from 0.274563 to 0.274563
Heightened Def Con from 0.274891 to 0.274891
Heightened Def Con from 0.274923 to 0.274923
Heightened Def Con from 0.275449 to 0.275449
Heightened Def Con from 0.275579 to 0.275579
Heightened Def Con from 0.276201 to 0.276201
Heightened Def Con from 0.276531 to 0.276531
Heightened Def Con from 0.277119 to 0.277119
Heightened Def Con from 0.277153 to 0.277153
Heightened Def Con from 0.277317 to 0.277317
Heightened Def Con from 0.277381 to 0.277381
Heightened Def Con from 0.277677 to 0.277677
Heightened Def Con from 0.277776 to 0.277776
Heightened Def Con from 0.27794 to 0.27794
Heightened Def Con from 0.279249 to 0.279249
Heightened Def Con from 0.27997 to 0.27997
Heightened Def Con from 0.280037 to 0.280037
Heightened Def Con from 0.280168 to 0.280168
Heightened Def Con from 0.28102 to 0.28102
Heightened Def Con from 0.281084 to 0.281084
Heightened Def Con from 0.281249 to 0.281249
Heightened Def Con from 0.281379 to 0.281379
Heightened Def Con from 0.281575 to 0.281575
Heightened Def Con from 0.281839 to 0.281839
Heightened Def Con from 0.282429 to 0.282429
Heightened Def Con from 0.282591 to 0.282591
Heightened Def Con from 0.282822 to 0.282822
Heightened Def Con from 0.283117 to 0.283117
Heightened Def Con from 0.283281 to 0.283281
Heightened Def Con from 0.283509 to 0.283509
Heightened Def Con from 0.284033 to 0.284033
Heightened Def Con from 0.284395 to 0.284395
Heightened Def Con from 0.284526 to 0.284526
Heightened Def Con from 0.285083 to 0.285083
Heightened Def Con from 0.28518 to 0.28518
Heightened Def Con from 0.285378 to 0.285378
Heightened Def Con from 0.285673 to 0.285673
Heightened Def Con from 0.286164 to 0.286164
Heightened Def Con from 0.286525 to 0.286525
Heightened Def Con from 0.286687 to 0.286687
Heightened Def Con from 0.28672 to 0.28672
Heightened Def Con from 0.286982 to 0.286982
Heightened Def Con from 0.287016 to 0.287016
Heightened Def Con from 0.287278 to 0.287278
Heightened Def Con from 0.28777 to 0.28777
Heightened Def Con from 0.287932 to 0.287932
Heightened Def Con from 0.287967 to 0.287967
Heightened Def Con from 0.28803 to 0.28803
Heightened Def Con from 0.28862 to 0.28862
Heightened Def Con from 0.288819 to 0.288819
Heightened Def Con from 0.289048 to 0.289048
Heightened Def Con from 0.289112 to 0.289112
Heightened Def Con from 0.289277 to 0.289277
Heightened Def Con from 0.290062 to 0.290062
Heightened Def Con from 0.290128 to 0.290128
Heightened Def Con from 0.290359 to 0.290359
Heightened Def Con from 0.290455 to 0.290455
Heightened Def Con from 0.290619 to 0.290619
Heightened Def Con from 0.290719 to 0.290719
Heightened Def Con from 0.291078 to 0.291078
Heightened Def Con from 0.291374 to 0.291374
Heightened Def Con from 0.291735 to 0.291735
Heightened Def Con from 0.292325 to 0.292325
Heightened Def Con from 0.293404 to 0.293404
Heightened Def Con from 0.29357 to 0.29357
Heightened Def Con from 0.293634 to 0.293634
Heightened Def Con from 0.293798 to 0.293798
Heightened Def Con from 0.294125 to 0.294125
Heightened Def Con from 0.294289 to 0.294289
Heightened Def Con from 0.294715 to 0.294715
Heightened Def Con from 0.294913 to 0.294913
Heightened Def Con from 0.295143 to 0.295143
Heightened Def Con from 0.295405 to 0.295405
Heightened Def Con from 0.295567 to 0.295567
Heightened Def Con from 0.2956 to 0.2956
Heightened Def Con from 0.295797 to 0.295797
Heightened Def Con from 0.295993 to 0.295993
Heightened Def Con from 0.29619 to 0.29619
Heightened Def Con from 0.296321 to 0.296321
Heightened Def Con from 0.296552 to 0.296552
Heightened Def Con from 0.296616 to 0.296616
Heightened Def Con from 0.29665 to 0.29665
Heightened Def Con from 0.296814 to 0.296814
Heightened Def Con from 0.296945 to 0.296945
Heightened Def Con from 0.297074 to 0.297074
Heightened Def Con from 0.298385 to 0.298385
Heightened Def Con from 0.298516 to 0.298516
Heightened Def Con from 0.298615 to 0.298615
Heightened Def Con from 0.298844 to 0.298844
Heightened Def Con from 0.299401 to 0.299401
Heightened Def Con from 0.299565 to 0.299565
Heightened Def Con from 0.299599 to 0.299599
Heightened Def Con from 0.299925 to 0.299925

Date: Wed Sep 14 01:21:19 2022
Total elapsed time: 12.741 seconds.

tnom = 27
temp = 27
method = modified trap
totiter = 4508309
traniter = 4507798
tranpoints = 1679857
accept = 1238019
rejected = 442631
matrix size = 39
fillins = 36
solver = Normal
Matrix Compiler1: 3.37 KB object code size  0.6/0.2/[0.2]
Matrix Compiler2: 3.72 KB object code size  0.3/0.3/[0.2]

