Circuit: * C:\Users\Lukas\Documents\RP2040_AS3394\spice files\Mixer.asc

Direct Newton iteration failed to find .op point.  (Use ".option noopiter" to skip.)
Starting Gmin stepping
Gmin = 10
Gmin = 1.07374
Gmin = 0.115292
Gmin = 0.0123794
Gmin = 0.00132923
Gmin = 0.000142725
Gmin = 1.5325e-005
Gmin = 1.6455e-006
Gmin = 1.76685e-007
Gmin = 1.89714e-008
Gmin = 2.03704e-009
Gmin = 2.18725e-010
Gmin = 2.34854e-011
Gmin = 2.52173e-012
Gmin = 2.70769e-013
Gmin = 0
Gmin stepping succeeded in finding the operating point.

Heightened Def Con from 0.00488253 to 0.00488253
Heightened Def Con from 0.00530852 to 0.00530852
Heightened Def Con from 0.00530852 +++++++++++++++++++++++to 0.00530852
Heightened Def Con from 0.00530852 ++++++++++++++++++++++to 0.00530852
Heightened Def Con from 0.00530852 ++++++++++++++++++++++to 0.00530852
Heightened Def Con from 0.00530852 ++++++++++++++++++++++to 0.00530852
Heightened Def Con from 0.00530852 ++++++++++++++++++++++to 0.00530852
Heightened Def Con from 0.00530852 ++++++++++++++++++++++to 0.00530852
Heightened Def Con from 0.00530852 ++++++++++++++++++++++to 0.00530852
Heightened Def Con from 0.00530852 ++++++++++++++++++++++to 0.00530852
Heightened Def Con from 0.00530852 ++++++++++++++++++++++to 0.00530852
Heightened Def Con from 0.00530852 ++++++++++++++++++++++to 0.00530852
Heightened Def Con from 0.00530852 ++++++++++++++++++++++to 0.00530852
Heightened Def Con from 0.00530852 ++++++++++++++++++++++to 0.00530852
Heightened Def Con from 0.00530852 ++++++++++++++++++++++to 0.00530852
Heightened Def Con from 0.00530852 ++++++++++++++++++++++to 0.00530852
Heightened Def Con from 0.00530852 ++++++++++++++++++++++to 0.00530852
Heightened Def Con from 0.00530852 ++++++++++++++++++++++to 0.00530852
Heightened Def Con from 0.00530852 ++++++++++++++++++++++to 0.00530852
Heightened Def Con from 0.00530852 ++++++++++++++++++++++to 0.00530852
Heightened Def Con from 0.00530852 ++++++++++++++++++++++to 0.00530852
Heightened Def Con from 0.00530852 ++++++++++++++++++++++to 0.00530852
Heightened Def Con from 0.00530852 ++++++++++++++++++++++to 0.00530852
Heightened Def Con from 0.00530852 ++++++++++++++++++++++to 0.00530852
Heightened Def Con from 0.00530852 ++++++++++++++++++++++to 0.00530852
Heightened Def Con from 0.00530852 ++++++++++++++++++++++to 0.00530852
Heightened Def Con from 0.00530852 ++++++++++++++++++++++to 0.00530852
Heightened Def Con from 0.00530852 ++++++++++++++++++++++to 0.00530852
Heightened Def Con from 0.00530852 ++++++++++++++++++++++to 0.00530852
Heightened Def Con from 0.00530852 ++++++++++++++++++++++to 0.00530852
Heightened Def Con from 0.00530852 ++++++++++++++++++++++to 0.00530852
Heightened Def Con from 0.00530852 ++++++++++++++++++++++to 0.00530852
Heightened Def Con from 0.00530852 ++++++++++++++++++++++to 0.00530852
Heightened Def Con from 0.00530852 ++++++++++++++++++++++to 0.00530852
Heightened Def Con from 0.00530852 ++++++++++++++++++++++to 0.00530852
Heightened Def Con from 0.00530852 ++++++++++++++++++++++to 0.00530852
Heightened Def Con from 0.00530852 ++++++++++++++++++++++to 0.00530852
Heightened Def Con from 0.00530852 ++++++++++++++++++++++to 0.00530852
Heightened Def Con from 0.00530852 ++++++++++++++++++++++to 0.00530852
Heightened Def Con from 0.00530852 ++++++++++++++++++++++to 0.00530852
Heightened Def Con from 0.00530852 ++++++++++++++++++++++to 0.00530852
Heightened Def Con from 0.00530852 ++++++++++++++++++++++to 0.00530852
Heightened Def Con from 0.00530852 ++++++++++++++++++++++to 0.00530852
Heightened Def Con from 0.00530852 ++++++++++++++++++++++to 0.00530852
Heightened Def Con from 0.00530852 ++++++++++++++++++++++to 0.00530852
Heightened Def Con from 0.00530852 ++++++++++++++++++++++to 0.00530852
Heightened Def Con from 0.00530852 ++++++++++++++++++++++to 0.00530852
Heightened Def Con from 0.00530852 ++++++++++++++++++++++to 0.00530852
Heightened Def Con from 0.00530852 ++++++++++++++++++++++to 0.00530852
Heightened Def Con from 0.00530852 ++++++++++++++++++++++to 0.00530852
Heightened Def Con from 0.00530852 ++++++++++++++++++++++to 0.00530852
Heightened Def Con from 0.00530852 ++++++++++++++++++++++to 0.00530852
Heightened Def Con from 0.00530852 ++++++++++++++++++++++to 0.00530852
Heightened Def Con from 0.00530852 ++++++++++++++++++++++to 0.00530852
Heightened Def Con from 0.00530852 ++++++++++++++++++++++to 0.00530852
Heightened Def Con from 0.00530852 ++++++++++++++++++++++to 0.00530852
Heightened Def Con from 0.00530852 ++++++++++++++++++++++to 0.00530852
Heightened Def Con from 0.00530852 ++++++++++++++++++++++to 0.00530852
Heightened Def Con from 0.00530852 ++++++++++++++++++++++to 0.00530852
Heightened Def Con from 0.00530852 ++++++++++++++++++++++to 0.00530852
Heightened Def Con from 0.00530852 ++++++++++++++++++++++to 0.00530852
Heightened Def Con from 0.00530852 ++++++++++++++++++++++to 0.00530852
Heightened Def Con from 0.00530852 ++++++++++++++++++++++to 0.00530852
Heightened Def Con from 0.00530852 ++++++++++++++++++++++to 0.00530852
Heightened Def Con from 0.00530852 ++++++++++++++++++++++to 0.00530852
Heightened Def Con from 0.00530852 ++++++++++++++++++++++to 0.00530852
Heightened Def Con from 0.00530852 ++++++++++++++++++++++to 0.00530852
Heightened Def Con from 0.00530852 ++++++++++++++++++++++to 0.00530852
Heightened Def Con from 0.00530852 ++++++++++++++++++++++to 0.00530852
Heightened Def Con from 0.00530852 ++++++++++++++++++++++to 0.00530852
Heightened Def Con from 0.00530852 ++++++++++++++++++++++to 0.00530852
Heightened Def Con from 0.00530852 ++++++++++++++++++++++to 0.00530852
Heightened Def Con from 0.00530852 ++++++++++++++++++++++to 0.00530852
Heightened Def Con from 0.00530852 ++++++++++++++++++++++to 0.00530852
Heightened Def Con from 0.00530852 ++++++++++++++++++++++to 0.00530852
Heightened Def Con from 0.00530852 ++++++++++++++++++++++to 0.00530852
Heightened Def Con from 0.00530852 ++++++++++++++++++++++to 0.00530852
Heightened Def Con from 0.00530852 ++++++++++++++++++++++to 0.00530852
Heightened Def Con from 0.00530852 ++++++++++++++++++++++to 0.00530852
Heightened Def Con from 0.00530852 ++++++++++++++++++++++to 0.00530852
Heightened Def Con from 0.00530852 ++++++++++++++++++++++to 0.00530852
Heightened Def Con from 0.00530852 ++++++++++++++++++++++to 0.00530852
Heightened Def Con from 0.00530852 ++++++++++++++++++++++to 0.00530852
Heightened Def Con from 0.00530852 ++++++++++++++++++++++to 0.00530852
Heightened Def Con from 0.00530852 ++++++++++++++++++++++to 0.00530852
Heightened Def Con from 0.00530852 ++++++++++++++++++++++to 0.00530852
Heightened Def Con from 0.00530852 ++++++++++++++++++++++to 0.00530852
Heightened Def Con from 0.00530852 ++++++++++++++++++++++to 0.00530852
Heightened Def Con from 0.00530852 ++++++++++++++++++++++to 0.00530852
Heightened Def Con from 0.00530852 ++++++++++++++++++++++to 0.00530852
Heightened Def Con from 0.00530852 ++++++++++++++++++++++to 0.00530852
Heightened Def Con from 0.00530852 ++++++++++++++++++++++to 0.00530852
Heightened Def Con from 0.00530852 ++++++++++++++++++++++to 0.00530852
Heightened Def Con from 0.00530852 ++++++++++++++++++++++to 0.00530852
Heightened Def Con from 0.00530852 ++++++++++++++++++++++to 0.00530852
Heightened Def Con from 0.00530852 ++++++++++++++++++++++to 0.00530852
Heightened Def Con from 0.00530852 ++++++++++++++++++++++to 0.00530852
Heightened Def Con from 0.00530852 ++++++++++++++++++++++to 0.00530852
Heightened Def Con from 0.00530852 ++++++++++++++++++++++to 0.00530852
Heightened Def Con from 0.00530852 ++++++++++++++++++++++to 0.00530852
Heightened Def Con from 0.00530852 ++++++++++++++++++++++to 0.00530852
Heightened Def Con from 0.00530852 ++++++++++++++++++++++to 0.00530852
Heightened Def Con from 0.00530852 ++++++++++++++++++++++to 0.00530852
Heightened Def Con from 0.00530852 ++++++++++++++++++++++to 0.00530852
Heightened Def Con from 0.00530852 ++++++++++++++++++++++to 0.00530852
Heightened Def Con from 0.00530852 ++++++++++++++++++++++to 0.00530852
Heightened Def Con from 0.00530852 ++++++++++++++++++++++to 0.00530852
Heightened Def Con from 0.00530852 ++++++++++++++++++++++to 0.00530852
Heightened Def Con from 0.00530852 ++++++++++++++++++++++to 0.00530852
Heightened Def Con from 0.00530852 ++++++++++++++++++++++to 0.00530852
Heightened Def Con from 0.00530852 ++++++++++++++++++++++to 0.00530852
Heightened Def Con from 0.00530852 ++++++++++++++++++++++to 0.00530852
Heightened Def Con from 0.00530852 ++++++++++++++++++++++to 0.00530852
Heightened Def Con from 0.00530852 ++++++++++++++++++++++to 0.00530852
Heightened Def Con from 0.00530852 ++++++++++++++++++++++to 0.00530852
Heightened Def Con from 0.00530852 ++++++++++++++++++++++to 0.00530852
Heightened Def Con from 0.00530852 ++++++++++++++++++++++to 0.00530852
Heightened Def Con from 0.00530852 ++++++++++++++++++++++to 0.00530852
Heightened Def Con from 0.00530852 ++++++++++++++++++++++to 0.00530852
Heightened Def Con from 0.00530852 ++++++++++++++++++++++to 0.00530852
Heightened Def Con from 0.00530852 ++++++++++++++++++++++to 0.00530852
Heightened Def Con from 0.00530852 ++++++++++++++++++++++to 0.00530852
Heightened Def Con from 0.00530852 ++++++++++++++++++++++to 0.00530852
Heightened Def Con from 0.00530852 ++++++++++++++++++++++to 0.00530852
Heightened Def Con from 0.00530852 ++++++++++++++++++++++to 0.00530852
Heightened Def Con from 0.00530852 ++++++++++++++++++++++to 0.00530852
Heightened Def Con from 0.00530852 ++++++++++++++++++++++to 0.00530852
Heightened Def Con from 0.00530852 ++++++++++++++++++++++to 0.00530852
Heightened Def Con from 0.00530852 ++++++++++++++++++++++to 0.00530852
Heightened Def Con from 0.00530852 ++++++++++++++++++++++to 0.00530852
Heightened Def Con from 0.00530852 ++++++++++++++++++++++to 0.00530852
Heightened Def Con from 0.00530852 ++++++++++++++++++++++to 0.00530852
Heightened Def Con from 0.00530852 ++++++++++++++++++++++to 0.00530852
Heightened Def Con from 0.00530852 ++++++++++++++++++++++to 0.00530852
Heightened Def Con from 0.00530852 ++++++++++++++++++++++to 0.00530852
Heightened Def Con from 0.00530852 ++++++++++++++++++++++to 0.00530852
Heightened Def Con from 0.00530852 ++++++++++++++++++++++to 0.00530852
Heightened Def Con from 0.00530852 ++++++++++++++++++++++to 0.00530852
Heightened Def Con from 0.00530852 ++++++++++++++++++++++to 0.00530852
Heightened Def Con from 0.00530852 ++++++++++++++++++++++to 0.00530852
Heightened Def Con from 0.00530852 ++++++++++++++++++++++to 0.00530852
Heightened Def Con from 0.00530852 ++++++++++++++++++++++to 0.00530852
Heightened Def Con from 0.00530852 ++++++++++++++++++++++to 0.00530852
Heightened Def Con from 0.00530852 ++++++++++++++++++++++to 0.00530852
Heightened Def Con from 0.00530852 ++++++++++++++++++++++to 0.00530852
Heightened Def Con from 0.00530852 ++++++++++++++++++++++to 0.00530852
Heightened Def Con from 0.00530852 ++++++++++++++++++++++to 0.00530852
Heightened Def Con from 0.00530852 ++++++++++++++++++++++to 0.00530852
Heightened Def Con from 0.00530852 ++++++++++++++++++++++to 0.00530852
Heightened Def Con from 0.00530852 ++++++++++++++++++++++to 0.00530852
Heightened Def Con from 0.00530852 ++++++++++++++++++++++to 0.00530852
Heightened Def Con from 0.00530852 ++++++++++++++++++++++to 0.00530852
Heightened Def Con from 0.00530852 ++++++++++++++++++++++to 0.00530852
Heightened Def Con from 0.00530852 ++++++++++++++++++++++to 0.00530852
Heightened Def Con from 0.00530852 ++++++++++++++++++++++to 0.00530852
Heightened Def Con from 0.00530852 ++++++++++++++++++++++to 0.00530852
Heightened Def Con from 0.00530852 ++++++++++++++++++++++to 0.00530852
Heightened Def Con from 0.00530852 ++++++++++++++++++++++to 0.00530852
Heightened Def Con from 0.00530852 ++++++++++++++++++++++to 0.00530852
Heightened Def Con from 0.00530852 ++++++++++++++++++++++to 0.00530852
Heightened Def Con from 0.00530852 ++++++++++++++++++++++to 0.00530852
Heightened Def Con from 0.00530852 ++++++++++++++++++++++to 0.00530852
Heightened Def Con from 0.00530852 ++++++++++++++++++++++to 0.00530852
Heightened Def Con from 0.00530852 ++++++++++++++++++++++to 0.00530852
Heightened Def Con from 0.00530852 ++++++++++++++++++++++to 0.00530852
Heightened Def Con from 0.00530852 ++++++++++++++++++++++to 0.00530852
Heightened Def Con from 0.00530852 ++++++++++++++++++++++to 0.00530852
Heightened Def Con from 0.00530852 ++++++++++++++++++++++to 0.00530852
Heightened Def Con from 0.00530852 ++++++++++++++++++++++to 0.00530852
Heightened Def Con from 0.00530852 ++++++++++++++++++++++to 0.00530852
Heightened Def Con from 0.00530852 ++++++++++++++++++++++to 0.00530852
Heightened Def Con from 0.00530852 ++++++++++++++++++++++to 0.00530852
Heightened Def Con from 0.00530852 ++++++++++++++++++++++to 0.00530852
Heightened Def Con from 0.00530852 ++++++++++++++++++++++to 0.00530852
Heightened Def Con from 0.00530852 ++++++++++++++++++++++to 0.00530852
Heightened Def Con from 0.00530852 ++++++++++++++++++++++to 0.00530852
Heightened Def Con from 0.00530852 ++++++++++++++++++++++to 0.00530852
Heightened Def Con from 0.00530852 ++++++++++++++++++++++to 0.00530852
Heightened Def Con from 0.00530852 ++++++++++++++++++++++to 0.00530852
Heightened Def Con from 0.00530852 ++++++++++++++++++++++to 0.00530852
Heightened Def Con from 0.00530852 ++++++++++++++++++++++to 0.00530852
Heightened Def Con from 0.00530852 ++++++++++++++++++++++to 0.00530852
Heightened Def Con from 0.00530852 ++++++++++++++++++++++to 0.00530852
Heightened Def Con from 0.00530852 ++++++++++++++++++++++to 0.00530852
Heightened Def Con from 0.00530852 ++++++++++++++++++++++to 0.00530852
Heightened Def Con from 0.00530852 ++++++++++++++++++++++to 0.00530852
Heightened Def Con from 0.00530852 ++++++++++++++++++++++to 0.00530852
Heightened Def Con from 0.00530852 ++++++++++++++++++++++to 0.00530852
Heightened Def Con from 0.00530852 ++++++++++++++++++++++to 0.00530852
Heightened Def Con from 0.00530852 ++++++++++++++++++++++to 0.00530852
Heightened Def Con from 0.00530852 ++++++++++++++++++++++to 0.00530852
Heightened Def Con from 0.00530852 ++++++++++++++++++++++to 0.00530852
Heightened Def Con from 0.00530852 ++++++++++++++++++++++to 0.00530852
Heightened Def Con from 0.00530852 ++++++++++++++++++++++to 0.00530852
Heightened Def Con from 0.00530852 ++++++++++++++++++++++to 0.00530852
Heightened Def Con from 0.00530852 ++++++++++++++++++++++to 0.00530852
Heightened Def Con from 0.00530852 ++++++++++++++++++++++to 0.00530852
Heightened Def Con from 0.00530852 ++++++++++++++++++++++to 0.00530852
Heightened Def Con from 0.00530852 ++++++++++++++++++++++to 0.00530852
Heightened Def Con from 0.00530852 ++++++++++++++++++++++to 0.00530852
Heightened Def Con from 0.00530852 ++++++++++++++++++++++to 0.00530852
Heightened Def Con from 0.00530852 ++++++++++++++++++++++to 0.00530852
Heightened Def Con from 0.00530852 ++++++++++++++++++++++to 0.00530852
Heightened Def Con from 0.00530852 ++++++++++++++++++++++to 0.00530852
Heightened Def Con from 0.00530852 ++++++++++++++++++++++to 0.00530852
Heightened Def Con from 0.00530852 ++++++++++++++++++++++to 0.00530852
Heightened Def Con from 0.00530852 ++++++++++++++++++++++to 0.00530852
Heightened Def Con from 0.00530852 ++++++++++++++++++++++to 0.00530852
Heightened Def Con from 0.00530852 ++++++++++++++++++++++to 0.00530852
Heightened Def Con from 0.00530852 ++++++++++++++++++++++to 0.00530852
Heightened Def Con from 0.00530852 ++++++++++++++++++++++to 0.00530852
Heightened Def Con from 0.00530852 ++++++++++++++++++++++to 0.00530852
Heightened Def Con from 0.00530852 ++++++++++++++++++++++to 0.00530852
Heightened Def Con from 0.00530852 ++++++++++++++++++++++to 0.00530852
Heightened Def Con from 0.00530852 ++++++++++++++++++++++to 0.00530852
Heightened Def Con from 0.00530852 ++++++++++++++++++++++to 0.00530852
Heightened Def Con from 0.00530852 ++++++++++++++++++++++to 0.00530852
Heightened Def Con from 0.00530852 ++++++++++++++++++++++to 0.00530852
Heightened Def Con from 0.00530852 ++++++++++++++++++++++to 0.00530852
Heightened Def Con from 0.00530852 ++++++++++++++++++++++to 0.00530852
Heightened Def Con from 0.00530852 ++++++++++++++++++++++to 0.00530852
Heightened Def Con from 0.00530852 ++++++++++++++++++++++to 0.00530852
Heightened Def Con from 0.00530852 ++++++++++++++++++++++to 0.00530852
Heightened Def Con from 0.00530852 ++++++++++++++++++++++to 0.00530852
Heightened Def Con from 0.00530852 ++++++++++++++++++++++to 0.00530852
Heightened Def Con from 0.00530852 ++++++++++++++++++++++to 0.00530852
Heightened Def Con from 0.00530852 ++++++++++++++++++++++to 0.00530852
Heightened Def Con from 0.00530852 ++++++++++++++++++++++to 0.00530852
Heightened Def Con from 0.00530852 ++++++++++++++++++++++to 0.00530852
Heightened Def Con from 0.00530852 ++++++++++++++++++++++to 0.00530852
Heightened Def Con from 0.00530852 ++++++++++++++++++++++to 0.00530852
Heightened Def Con from 0.00530852 ++++++++++++++++++++++to 0.00530852
Heightened Def Con from 0.00530852 ++++++++++++++++++++++to 0.00530852
Heightened Def Con from 0.00530852 ++++++++++++++++++++++to 0.00530852
Heightened Def Con from 0.00530852 ++++++++++++++++++++++to 0.00530852
Heightened Def Con from 0.00530852 ++++++++++++++++++++++to 0.00530852
Heightened Def Con from 0.00530852 ++++++++++++++++++++++to 0.00530852
Heightened Def Con from 0.00530852 ++++++++++++++++++++++to 0.00530852
Heightened Def Con from 0.00530852 ++++++++++++++++++++++to 0.00530852
Heightened Def Con from 0.00530852 ++++++++++++++++++++++to 0.00530852
Heightened Def Con from 0.00530852 ++++++++++++++++++++++to 0.00530852
Heightened Def Con from 0.00530852 ++++++++++++++++++++++to 0.00530852
Heightened Def Con from 0.00530852 ++++++++++++++++++++++to 0.00530852
Heightened Def Con from 0.00530852 ++++++++++++++++++++++to 0.00530852
Heightened Def Con from 0.00530852 ++++++++++++++++++++++to 0.00530852
Heightened Def Con from 0.00530852 ++++++++++++++++++++++to 0.00530852
Heightened Def Con from 0.00530852 ++++++++++++++++++++++to 0.00530852
Heightened Def Con from 0.00530852 ++++++++++++++++++++++to 0.00530852
Heightened Def Con from 0.00530852 ++++++++++++++++++++++to 0.00530852
Heightened Def Con from 0.00530852 ++++++++++++++++++++++to 0.00530852
Heightened Def Con from 0.00530852 ++++++++++++++++++++++to 0.00530852
Heightened Def Con from 0.00530852 ++++++++++++++++++++++to 0.00530852
Heightened Def Con from 0.00530852 ++++++++++++++++++++++to 0.00530852
Heightened Def Con from 0.00530852 ++++++++++++++++++++++to 0.00530852
Heightened Def Con from 0.00530852 ++++++++++++++++++++++to 0.00530852
Heightened Def Con from 0.00530852 ++++++++++++++++++++++to 0.00530852
Heightened Def Con from 0.00530852 ++++++++++++++++++++++to 0.00530852
Heightened Def Con from 0.00530852 ++++++++++++++++++++++to 0.00530852
Heightened Def Con from 0.00530852 ++++++++++++++++++++++to 0.00530852
Heightened Def Con from 0.00530852 ++++++++++++++++++++++to 0.00530852
Heightened Def Con from 0.00530852 ++++++++++++++++++++++to 0.00530852
Heightened Def Con from 0.00530852 ++++++++++++++++++++++to 0.00530852
Heightened Def Con from 0.00530852 ++++++++++++++++++++++to 0.00530852
Heightened Def Con from 0.00530852 ++++++++++++++++++++++to 0.00530852
Heightened Def Con from 0.00530852 ++++++++++++++++++++++to 0.00530852
Heightened Def Con from 0.00530852 ++++++++++++++++++++++to 0.00530852
Heightened Def Con from 0.00530852 ++++++++++++++++++++++to 0.00530852
Heightened Def Con from 0.00530852 ++++++++++++++++++++++to 0.00530852
Heightened Def Con from 0.00530852 ++++++++++++++++++++++to 0.00530852
Heightened Def Con from 0.00530852 ++++++++++++++++++++++to 0.00530852
Heightened Def Con from 0.00530852 ++++++++++++++++++++++to 0.00530852
Heightened Def Con from 0.00530852 ++++++++++++++++++++++to 0.00530852
Heightened Def Con from 0.00530852 ++++++++++++++++++++++to 0.00530852
Heightened Def Con from 0.00530852 ++++++++++++++++++++++to 0.00530852
Heightened Def Con from 0.00530852 ++++++++++++++++++++++to 0.00530852
Heightened Def Con from 0.00530852 ++++++++++++++++++++++to 0.00530852
Heightened Def Con from 0.00530852 ++++++++++++++++++++++to 0.00530852
Heightened Def Con from 0.00530852 ++++++++++++++++++++++to 0.00530852
Heightened Def Con from 0.00530852 ++++++++++++++++++++++to 0.00530852
Heightened Def Con from 0.00530852 ++++++++++++++++++++++to 0.00530852
Heightened Def Con from 0.00530852 ++++++++++++++++++++++to 0.00530852
Heightened Def Con from 0.00530852 ++++++++++++++++++++++to 0.00530852
Heightened Def Con from 0.00530852 ++++++++++++++++++++++to 0.00530852
Heightened Def Con from 0.00530852 ++++++++++++++++++++++to 0.00530852
Heightened Def Con from 0.00530852 ++++++++++++++++++++++to 0.00530852
Heightened Def Con from 0.00530852 ++++++++++++++++++++++to 0.00530852
Heightened Def Con from 0.00530852 ++++++++++++++++++++++to 0.00530852
Heightened Def Con from 0.00530852 ++++++++++++++++++++++to 0.00530852
Heightened Def Con from 0.00530852 ++++++++++++++++++++++to 0.00530852
Heightened Def Con from 0.00530852 ++++++++++++++++++++++to 0.00530852
Heightened Def Con from 0.00530852 ++++++++++++++++++++++to 0.00530852
Heightened Def Con from 0.00530852 ++++++++++++++++++++++to 0.00530852
Heightened Def Con from 0.00530852 ++++++++++++++++++++++to 0.00530852
Heightened Def Con from 0.00530852 ++++++++++++++++++++++to 0.00530852
Heightened Def Con from 0.00530852 ++++++++++++++++++++++to 0.00530852
Heightened Def Con from 0.00530852 ++++++++++++++++++++++to 0.00530852
Heightened Def Con from 0.00530852 ++++++++++++++++++++++to 0.00530852
Heightened Def Con from 0.00530852 ++++++++++++++++++++++to 0.00530852
Heightened Def Con from 0.00530852 ++++++++++++++++++++++to 0.00530852
Heightened Def Con from 0.00530852 ++++++++++++++++++++++to 0.00530852
Heightened Def Con from 0.00530852 ++++++++++++++++++++++to 0.00530852
Heightened Def Con from 0.00530852 ++++++++++++++++++++++to 0.00530852
Heightened Def Con from 0.00530852 ++++++++++++++++++++++to 0.00530852
Heightened Def Con from 0.00530852 ++++++++++++++++++++++to 0.00530852
Heightened Def Con from 0.00530852 ++++++++++++++++++++++to 0.00530852
Heightened Def Con from 0.00530852 ++++++++++++++++++++++to 0.00530852
Heightened Def Con from 0.00530852 +++++++++++++++to 0.00530852
Heightened Def Con from 0.00530852 to 0.00530852
Heightened Def Con from 0.00530852 to 0.00530852
Heightened Def Con from 0.00540915 to 0.00540915
Heightened Def Con from 0.00547466 to 0.00547466
Heightened Def Con from 0.00547466 +++++++++++++++++++++to 0.00547466
Heightened Def Con from 0.00547481 to 0.00547481
Heightened Def Con from 0.00547481 +++++++++++++++++++++to 0.00547481
Heightened Def Con from 0.00547492 to 0.00547492
Heightened Def Con from 0.00557297 to 0.00557297
Heightened Def Con from 0.00560574 to 0.00560574
Heightened Def Con from 0.00573683 to 0.00573683
Heightened Def Con from 0.00573683 to 0.00573683
Heightened Def Con from 0.00580235 to 0.00580235
Heightened Def Con from 0.00580235 +++++++++++++++++++++to 0.00580235
Heightened Def Con from 0.00593318 to 0.00593319
Heightened Def Con from 0.00606425 +to 0.00606425
Heightened Def Con from 0.0061628 to 0.0061628
Heightened Def Con from 0.00626087 to 0.00626087
Heightened Def Con from 0.00626087 +++++++++++++++++++++to 0.00626087
Heightened Def Con from 0.00632665 to 0.00632665
Heightened Def Con from 0.00655577 to 0.00655577
Heightened Def Con from 0.00655577 to 0.00655577
Heightened Def Con from 0.00655577 to 0.00655577
Heightened Def Con from 0.00655577 to 0.00655577
Heightened Def Con from 0.00658879 to 0.00658879
Heightened Def Con from 0.00665408 to 0.00665408
Heightened Def Con from 0.00665408 to 0.00665408
Heightened Def Con from 0.00668709 to 0.00668709
Heightened Def Con from 0.00668709 to 0.00668709
Heightened Def Con from 0.00675262 to 0.00675262
Heightened Def Con from 0.00675262 to 0.00675262
Heightened Def Con from 0.00691647 to 0.00691647
Heightened Def Con from 0.00691647 to 0.00691647
Heightened Def Con from 0.00691647 to 0.00691647
Heightened Def Con from 0.00691647 to 0.00691647
Heightened Def Con from 0.00691647 to 0.00691647
Heightened Def Con from 0.00698175 to 0.00698176
Heightened Def Con from 0.00704729 to 0.00704729
Heightened Def Con from 0.00711306 to 0.00711306
Heightened Def Con from 0.00711306 to 0.00711306
Heightened Def Con from 0.00711306 to 0.00711306
Heightened Def Con from 0.00734246 to 0.00734246
Heightened Def Con from 0.00737521 to 0.00737521
Heightened Def Con from 0.00747353 to 0.00747353
Heightened Def Con from 0.00763736 to 0.00763736
Heightened Def Con from 0.00770265 to 0.00770265
Heightened Def Con from 0.00786674 to 0.00786675
Heightened Def Con from 0.00803059 to 0.00803059
Heightened Def Con from 0.00819417 to 0.00819417
Heightened Def Con from 0.00848909 to 0.0084891
Heightened Def Con from 0.00855488 to 0.00855488
Heightened Def Con from 0.00855488 to 0.00855488
Heightened Def Con from 0.00858762 to 0.00858762
Heightened Def Con from 0.00868593 to 0.00868593
Heightened Def Con from 0.00878401 to 0.00878401
Heightened Def Con from 0.0088823 to 0.0088823
Heightened Def Con from 0.0088823 +++++++++++++++++++++to 0.0088823
Heightened Def Con from 0.00891532 to 0.00891533
Heightened Def Con from 0.00898086 to 0.00898086
Heightened Def Con from 0.00907916 to 0.00907916
Heightened Def Con from 0.00914445 to 0.00914445
Heightened Def Con from 0.00914445 +++++++++++++++++++++to 0.00914445
Heightened Def Con from 0.00914464 to 0.00914464
Heightened Def Con from 0.009243 to 0.009243
Heightened Def Con from 0.009243 to 0.009243
Heightened Def Con from 0.009243 to 0.009243
Heightened Def Con from 0.009243 +++++++++++++++++++++to 0.009243
Heightened Def Con from 0.00927552 to 0.00927552
Heightened Def Con from 0.00930829 to 0.0093083
Heightened Def Con from 0.00953792 to 0.00953792
Heightened Def Con from 0.00953792 to 0.00953792
Heightened Def Con from 0.00953792 to 0.00953792
Heightened Def Con from 0.00953792 to 0.00953792
Heightened Def Con from 0.00953792 to 0.00953792
Heightened Def Con from 0.00953792 +++++++++++++++++++++to 0.00953792
Heightened Def Con from 0.00953806 to 0.00953806
Heightened Def Con from 0.00957067 to 0.00957068
Heightened Def Con from 0.00973454 to 0.00973454
Heightened Def Con from 0.00986534 to 0.00986534
Heightened Def Con from 0.00996389 to 0.00996389
Heightened Def Con from 0.00999664 to 0.00999664
Heightened Def Con from 0.00999664 +++++++++++++++++++++to 0.00999664
Heightened Def Con from 0.00999679 to 0.00999679
Heightened Def Con from 0.0100622 to 0.0100622
Heightened Def Con from 0.0101602 to 0.0101602
Heightened Def Con from 0.0102258 to 0.0102258
Heightened Def Con from 0.0103243 to 0.0103244
Heightened Def Con from 0.0106848 to 0.0106848
Heightened Def Con from 0.0109795 to 0.0109795
Heightened Def Con from 0.0110452 to 0.0110452
Heightened Def Con from 0.0111435 to 0.0111435
Heightened Def Con from 0.0112419 to 0.0112419
Heightened Def Con from 0.0113074 to 0.0113074
Heightened Def Con from 0.011504 to 0.011504
Heightened Def Con from 0.0115365 to 0.0115365
Heightened Def Con from 0.0118645 to 0.0118645
Heightened Def Con from 0.01193 to 0.01193
Heightened Def Con from 0.012028 to 0.012028
Heightened Def Con from 0.0120938 to 0.0120938
Heightened Def Con from 0.0121591 to 0.0121591
Heightened Def Con from 0.0121921 to 0.0121921
Heightened Def Con from 0.0122249 to 0.0122249
Heightened Def Con from 0.012356 to 0.012356
Heightened Def Con from 0.0123887 to 0.0123887
Heightened Def Con from 0.0124215 to 0.0124215
Heightened Def Con from 0.012454 to 0.012454
Heightened Def Con from 0.0125198 to 0.0125198
Heightened Def Con from 0.0128472 to 0.0128472
Heightened Def Con from 0.0129455 to 0.0129455
Heightened Def Con from 0.0129785 to 0.0129786
Heightened Def Con from 0.0130768 to 0.0130769
Heightened Def Con from 0.0131096 to 0.0131096
Heightened Def Con from 0.0131424 to 0.0131424
Heightened Def Con from 0.0132077 to 0.0132077
Heightened Def Con from 0.0133062 to 0.0133062
Heightened Def Con from 0.0134701 to 0.0134701
Heightened Def Con from 0.0136339 to 0.0136339
Heightened Def Con from 0.0137322 to 0.0137322
Heightened Def Con from 0.013765 to 0.013765
Heightened Def Con from 0.0138305 to 0.0138305
Heightened Def Con from 0.0138633 to 0.0138633
Heightened Def Con from 0.0139616 to 0.0139616
Heightened Def Con from 0.0139943 to 0.0139944
Heightened Def Con from 0.0140271 to 0.0140271
Heightened Def Con from 0.0142237 to 0.0142237
Heightened Def Con from 0.0143548 to 0.0143548
Heightened Def Con from 0.0143876 to 0.0143876
Heightened Def Con from 0.0145514 to 0.0145514
Heightened Def Con from 0.0146167 to 0.0146167
Heightened Def Con from 0.0146497 to 0.0146497
Heightened Def Con from 0.0146825 to 0.0146825
Heightened Def Con from 0.014748 to 0.014748
Heightened Def Con from 0.0147808 to 0.0147808
Heightened Def Con from 0.0148136 to 0.0148136
Heightened Def Con from 0.0148791 to 0.0148791
Heightened Def Con from 0.0149774 to 0.0149774
Heightened Def Con from 0.0150101 to 0.0150102
Heightened Def Con from 0.0150754 to 0.0150755
Heightened Def Con from 0.0151412 to 0.0151412
Heightened Def Con from 0.0152393 to 0.0152393
Heightened Def Con from 0.0153378 to 0.0153378
Heightened Def Con from 0.0154362 to 0.0154362
Heightened Def Con from 0.0155017 to 0.0155017
Heightened Def Con from 0.0156983 to 0.0156983
Heightened Def Con from 0.0157636 to 0.0157636
Heightened Def Con from 0.0158294 to 0.0158294
Heightened Def Con from 0.0158949 to 0.0158949
Heightened Def Con from 0.0159604 to 0.0159604
Heightened Def Con from 0.0160587 to 0.0160587
Heightened Def Con from 0.0161898 to 0.0161898
Heightened Def Con from 0.0162554 to 0.0162554
Heightened Def Con from 0.0163209 to 0.0163209
Heightened Def Con from 0.0163536 to 0.0163536
Heightened Def Con from 0.0163864 to 0.0163864
Heightened Def Con from 0.016583 to 0.016583
Heightened Def Con from 0.0166813 to 0.0166813
Heightened Def Con from 0.0167796 to 0.0167796
Heightened Def Con from 0.0168124 to 0.0168124
Heightened Def Con from 0.0170418 to 0.0170418
Heightened Def Con from 0.0174678 to 0.0174678
Heightened Def Con from 0.0175661 to 0.0175661
Heightened Def Con from 0.0177952 to 0.0177952
Heightened Def Con from 0.017861 to 0.017861
Heightened Def Con from 0.0181887 to 0.0181887
Heightened Def Con from 0.0184178 to 0.0184178
Heightened Def Con from 0.0185819 to 0.0185819
Heightened Def Con from 0.0186144 to 0.0186144
Heightened Def Con from 0.0186474 to 0.0186474
Heightened Def Con from 0.0190406 to 0.0190406
Heightened Def Con from 0.0191389 to 0.0191389
Heightened Def Con from 0.0194338 to 0.0194339
Heightened Def Con from 0.0194664 +to 0.0194664
Heightened Def Con from 0.0195649 to 0.0195649
Heightened Def Con from 0.0196632 to 0.0196632
Heightened Def Con from 0.019696 to 0.019696
Heightened Def Con from 0.0198271 to 0.0198271
Heightened Def Con from 0.0198926 to 0.0198926
Heightened Def Con from 0.0199581 to 0.0199581
Heightened Def Con from 0.0200892 to 0.0200892
Heightened Def Con from 0.0201547 to 0.0201547
Heightened Def Con from 0.020253 to 0.0202531
Heightened Def Con from 0.0203839 to 0.0203839
Heightened Def Con from 0.0204824 to 0.0204824
Heightened Def Con from 0.020548 to 0.020548
Heightened Def Con from 0.0207443 to 0.0207443
Heightened Def Con from 0.0209084 to 0.0209084
Heightened Def Con from 0.0210723 to 0.0210723
Heightened Def Con from 0.0212033 to 0.0212033
Heightened Def Con from 0.0212358 to 0.0212358
Heightened Def Con from 0.0213016 to 0.0213016
Heightened Def Con from 0.0213672 to 0.0213672
Heightened Def Con from 0.0214982 to 0.0214982
Heightened Def Con from 0.0217604 to 0.0217604
Heightened Def Con from 0.0218259 to 0.0218259
Heightened Def Con from 0.021924 to 0.021924
Heightened Def Con from 0.0219567 to 0.0219567
Heightened Def Con from 0.0220225 to 0.0220225
Heightened Def Con from 0.0221208 to 0.0221208
Heightened Def Con from 0.0223172 to 0.0223172
Heightened Def Con from 0.0224485 to 0.0224485
Heightened Def Con from 0.0227434 to 0.0227434
Heightened Def Con from 0.0227762 to 0.0227762
Heightened Def Con from 0.0228745 to 0.0228745
Heightened Def Con from 0.0229072 to 0.0229072
Heightened Def Con from 0.0230711 to 0.0230711
Heightened Def Con from 0.0231038 to 0.0231038
Heightened Def Con from 0.0231694 to 0.0231694
Heightened Def Con from 0.023333 to 0.023333
Heightened Def Con from 0.023366 to 0.023366
Heightened Def Con from 0.0234968 to 0.0234968
Heightened Def Con from 0.0235951 to 0.0235951
Heightened Def Con from 0.0237592 to 0.0237592
Heightened Def Con from 0.023792 to 0.023792
Heightened Def Con from 0.0238903 to 0.0238903
Heightened Def Con from 0.0239556 to 0.0239556
Heightened Def Con from 0.0242177 to 0.0242177
Heightened Def Con from 0.0242835 to 0.0242835
Heightened Def Con from 0.0244146 to 0.0244146
Heightened Def Con from 0.0244799 to 0.0244799
Heightened Def Con from 0.0246767 to 0.0246767
Heightened Def Con from 0.024742 to 0.024742
Heightened Def Con from 0.0248078 to 0.0248078
Heightened Def Con from 0.0248405 to 0.0248405
Heightened Def Con from 0.0249061 to 0.0249061
Heightened Def Con from 0.0251027 to 0.0251027
Heightened Def Con from 0.0253649 to 0.0253649
Heightened Def Con from 0.0253976 to 0.0253976
Heightened Def Con from 0.0254959 to 0.0254959
Heightened Def Con from 0.0255287 to 0.0255287
Heightened Def Con from 0.025594 to 0.025594
Heightened Def Con from 0.0256595 to 0.0256595
Heightened Def Con from 0.0257581 to 0.0257581
Heightened Def Con from 0.0257908 to 0.0257908
Heightened Def Con from 0.0260855 to 0.0260855
Heightened Def Con from 0.0261185 to 0.0261185
Heightened Def Con from 0.026184 to 0.026184
Heightened Def Con from 0.0263151 to 0.0263151
Heightened Def Con from 0.0264132 to 0.0264132
Heightened Def Con from 0.0265445 to 0.0265445
Heightened Def Con from 0.0266098 to 0.0266098
Heightened Def Con from 0.0267411 to 0.0267411
Heightened Def Con from 0.0267736 to 0.0267736
Heightened Def Con from 0.0268722 to 0.0268722
Heightened Def Con from 0.0269049 to 0.0269049
Heightened Def Con from 0.0269377 to 0.0269377
Heightened Def Con from 0.0269705 to 0.0269705
Heightened Def Con from 0.0270033 to 0.0270033
Heightened Def Con from 0.0271016 to 0.0271016
Heightened Def Con from 0.0271669 to 0.0271669
Heightened Def Con from 0.0273637 to 0.0273637
Heightened Def Con from 0.0275273 to 0.0275273
Heightened Def Con from 0.0276256 to 0.0276256
Heightened Def Con from 0.0277242 to 0.0277242
Heightened Def Con from 0.0277894 to 0.0277894
Heightened Def Con from 0.0279535 to 0.0279535
Heightened Def Con from 0.0283467 to 0.0283468
Heightened Def Con from 0.028412 to 0.028412
Heightened Def Con from 0.0284778 to 0.0284778
Heightened Def Con from 0.0286742 to 0.0286742
Heightened Def Con from 0.028871 to 0.028871
Heightened Def Con from 0.0289363 to 0.0289363
Heightened Def Con from 0.0291657 to 0.0291657
Heightened Def Con from 0.0291987 to 0.0291987
Heightened Def Con from 0.0292643 to 0.0292643
Heightened Def Con from 0.029297 to 0.029297
Heightened Def Con from 0.0293295 to 0.0293295
Heightened Def Con from 0.0293625 to 0.0293625
Heightened Def Con from 0.0294609 to 0.0294609
Heightened Def Con from 0.0294936 to 0.0294936
Heightened Def Con from 0.0295592 to 0.0295592
Heightened Def Con from 0.0296572 to 0.0296572
Heightened Def Con from 0.0298538 to 0.0298538
Heightened Def Con from 0.0298868 to 0.0298868
Heightened Def Con from 0.0299196 to 0.0299196
Heightened Def Con from 0.030149 to 0.030149
Heightened Def Con from 0.0301817 to 0.0301817
Heightened Def Con from 0.0302473 to 0.0302473
Heightened Def Con from 0.03028 to 0.0302801
Heightened Def Con from 0.0303128 to 0.0303128
Heightened Def Con from 0.0303456 to 0.0303456
Heightened Def Con from 0.0303784 to 0.0303784
Heightened Def Con from 0.0305094 to 0.0305094
Heightened Def Con from 0.0306405 to 0.0306405
Heightened Def Con from 0.0307713 to 0.0307713
Heightened Def Con from 0.0310337 to 0.0310337
Heightened Def Con from 0.0310665 to 0.0310665
Heightened Def Con from 0.031132 to 0.031132
Heightened Def Con from 0.0312303 to 0.0312303
Heightened Def Con from 0.0313614 to 0.0313614
Heightened Def Con from 0.0313942 to 0.0313942
Heightened Def Con from 0.0314269 to 0.0314269
Heightened Def Con from 0.0315252 to 0.0315252
Heightened Def Con from 0.031558 to 0.031558
Heightened Def Con from 0.0316563 to 0.0316563
Heightened Def Con from 0.0317874 to 0.0317874
Heightened Def Con from 0.0318201 to 0.0318201
Heightened Def Con from 0.0319185 to 0.0319185
Heightened Def Con from 0.0319512 to 0.0319512
Heightened Def Con from 0.0320495 to 0.0320495
Heightened Def Con from 0.0320823 to 0.0320823
Heightened Def Con from 0.0321151 to 0.0321151
Heightened Def Con from 0.0321803 to 0.0321804
Heightened Def Con from 0.0322134 to 0.0322134
Heightened Def Con from 0.0322789 to 0.0322789
Heightened Def Con from 0.0323442 to 0.0323442
Heightened Def Con from 0.0323772 to 0.0323772
Heightened Def Con from 0.03241 to 0.03241
Heightened Def Con from 0.0324753 to 0.0324753
Heightened Def Con from 0.0325083 to 0.0325083
Heightened Def Con from 0.0326719 to 0.0326719
Heightened Def Con from 0.0327704 to 0.0327704
Heightened Def Con from 0.0328032 to 0.0328032
Heightened Def Con from 0.0330653 to 0.0330653
Heightened Def Con from 0.0333603 to 0.0333603
Heightened Def Con from 0.033393 to 0.033393
Heightened Def Con from 0.0334586 to 0.0334586
Heightened Def Con from 0.0334913 to 0.0334913
Heightened Def Con from 0.0335241 to 0.0335241
Heightened Def Con from 0.0335568 to 0.0335568
Heightened Def Con from 0.0335894 to 0.0335894
Heightened Def Con from 0.0336224 to 0.0336224
Heightened Def Con from 0.0336549 to 0.0336549
Heightened Def Con from 0.0338845 to 0.0338845
Heightened Def Con from 0.0339171 to 0.0339171
Heightened Def Con from 0.0341139 to 0.0341139
Heightened Def Con from 0.0341467 to 0.0341467
Heightened Def Con from 0.0341795 to 0.0341795
Heightened Def Con from 0.0342122 to 0.0342122
Heightened Def Con from 0.0342777 to 0.0342777
Heightened Def Con from 0.0343105 to 0.0343105
Heightened Def Con from 0.0343433 to 0.0343433
Heightened Def Con from 0.034376 to 0.034376
Heightened Def Con from 0.0344744 to 0.0344744
Heightened Def Con from 0.0346052 to 0.0346052
Heightened Def Con from 0.0346382 to 0.0346382
Heightened Def Con from 0.034671 to 0.034671
Heightened Def Con from 0.0347365 to 0.0347365
Heightened Def Con from 0.0347693 to 0.0347693
Heightened Def Con from 0.034802 to 0.034802
Heightened Def Con from 0.0348348 to 0.0348348
Heightened Def Con from 0.0349659 to 0.0349659
Heightened Def Con from 0.0349986 to 0.0349986
Heightened Def Con from 0.0350314 to 0.0350314
Heightened Def Con from 0.0350642 to 0.0350642
Heightened Def Con from 0.0351297 to 0.0351297
Heightened Def Con from 0.0351625 to 0.0351625
Heightened Def Con from 0.0352933 to 0.0352933
Heightened Def Con from 0.0353261 to 0.0353261
Heightened Def Con from 0.0354244 to 0.0354244
Heightened Def Con from 0.0355885 to 0.0355885
Heightened Def Con from 0.035654 to 0.035654
Heightened Def Con from 0.035654 to 0.035654
Heightened Def Con from 0.0356868 to 0.0356868
Heightened Def Con from 0.0357523 to 0.0357523
Heightened Def Con from 0.0357851 to 0.0357851
Heightened Def Con from 0.0358178 to 0.0358178
Heightened Def Con from 0.0358834 to 0.0358834
Heightened Def Con from 0.0359161 to 0.0359161
Heightened Def Con from 0.0361783 to 0.0361783
Heightened Def Con from 0.0362111 to 0.0362111
Heightened Def Con from 0.0362436 to 0.0362436
Heightened Def Con from 0.0362766 to 0.0362766
Heightened Def Con from 0.0363421 to 0.0363421
Heightened Def Con from 0.0363749 to 0.0363749
Heightened Def Con from 0.0365713 to 0.0365713
Heightened Def Con from 0.0366698 to 0.0366698
Heightened Def Con from 0.0367353 to 0.0367353
Heightened Def Con from 0.0368336 to 0.0368337
Heightened Def Con from 0.0369317 to 0.0369317
Heightened Def Con from 0.0369647 to 0.0369647
Heightened Def Con from 0.0370958 to 0.0370958
Heightened Def Con from 0.0371941 to 0.0371941
Heightened Def Con from 0.0372269 to 0.0372269
Heightened Def Con from 0.0372922 to 0.0372922
Heightened Def Con from 0.0373252 to 0.0373252
Heightened Def Con from 0.0373577 to 0.0373577
Heightened Def Con from 0.0373907 to 0.0373907
Heightened Def Con from 0.037456 to 0.037456
Heightened Def Con from 0.0375871 to 0.0375871
Heightened Def Con from 0.0376201 to 0.0376201
Heightened Def Con from 0.0376854 to 0.0376854
Heightened Def Con from 0.0378822 to 0.0378822
Heightened Def Con from 0.037915 to 0.037915
Heightened Def Con from 0.0379803 to 0.0379803
Heightened Def Con from 0.0380458 to 0.0380458
Heightened Def Con from 0.0381444 to 0.0381444
Heightened Def Con from 0.0382424 to 0.0382424
Heightened Def Con from 0.0382754 to 0.0382754
Heightened Def Con from 0.0383407 to 0.0383407
Heightened Def Con from 0.0383737 to 0.0383737
Heightened Def Con from 0.0384065 to 0.0384065
Heightened Def Con from 0.0385373 to 0.0385373
Heightened Def Con from 0.0386687 to 0.0386687
Heightened Def Con from 0.0387014 to 0.0387014
Heightened Def Con from 0.038767 to 0.038767
Heightened Def Con from 0.0388325 to 0.0388325
Heightened Def Con from 0.0388653 to 0.0388653
Heightened Def Con from 0.038898 to 0.038898
Heightened Def Con from 0.0390947 to 0.0390947
Heightened Def Con from 0.0391599 to 0.0391599
Heightened Def Con from 0.0391929 to 0.0391929
Heightened Def Con from 0.0392257 to 0.0392257
Heightened Def Con from 0.039324 to 0.039324
Heightened Def Con from 0.0393895 to 0.0393895
Heightened Def Con from 0.0394223 to 0.0394223
Heightened Def Con from 0.0396189 to 0.0396189
Heightened Def Con from 0.0396845 to 0.0396845
Heightened Def Con from 0.0399139 to 0.0399139
Heightened Def Con from 0.0403398 to 0.0403398
Heightened Def Con from 0.0403726 to 0.0403726
Heightened Def Con from 0.0404381 to 0.0404381
Heightened Def Con from 0.0404709 to 0.0404709
Heightened Def Con from 0.0406345 to 0.0406345
Heightened Def Con from 0.0407003 to 0.0407003
Heightened Def Con from 0.0408966 to 0.0408966
Heightened Def Con from 0.0409624 to 0.0409624
Heightened Def Con from 0.041028 to 0.041028
Heightened Def Con from 0.0410607 to 0.0410607
Heightened Def Con from 0.0412246 to 0.0412246
Heightened Def Con from 0.0412899 to 0.0412899
Heightened Def Con from 0.0414212 to 0.0414212
Heightened Def Con from 0.0415195 to 0.0415195
Heightened Def Con from 0.041585 to 0.041585
Heightened Def Con from 0.0417161 to 0.0417161
Heightened Def Con from 0.0418469 to 0.0418469
Heightened Def Con from 0.0419127 to 0.0419127
Heightened Def Con from 0.0419455 to 0.0419455
Heightened Def Con from 0.0421091 to 0.0421091
Heightened Def Con from 0.0421421 to 0.0421421
Heightened Def Con from 0.0421748 to 0.0421748
Heightened Def Con from 0.0422076 to 0.0422076
Heightened Def Con from 0.0422404 to 0.0422404
Heightened Def Con from 0.0422731 to 0.0422731
Heightened Def Con from 0.0425025 to 0.0425025
Heightened Def Con from 0.0426991 to 0.0426991
Heightened Def Con from 0.042863 to 0.042863
Heightened Def Con from 0.0428957 to 0.0428957
Heightened Def Con from 0.0430596 to 0.0430596
Heightened Def Con from 0.0430923 to 0.0430924
Heightened Def Con from 0.0431251 to 0.0431251
Heightened Def Con from 0.0431579 to 0.0431579
Heightened Def Con from 0.0432234 to 0.0432234
Heightened Def Con from 0.043289 to 0.043289
Heightened Def Con from 0.0433545 to 0.0433545
Heightened Def Con from 0.0434856 to 0.0434856
Heightened Def Con from 0.0435511 to 0.0435511
Heightened Def Con from 0.0435839 to 0.0435839
Heightened Def Con from 0.0436491 to 0.0436491
Heightened Def Con from 0.0439768 to 0.0439768
Heightened Def Con from 0.0441079 to 0.0441079
Heightened Def Con from 0.0443375 to 0.0443375
Heightened Def Con from 0.0444356 to 0.0444356
Heightened Def Con from 0.0444686 to 0.0444686
Heightened Def Con from 0.0445667 to 0.0445667
Heightened Def Con from 0.044665 to 0.044665
Heightened Def Con from 0.0447635 to 0.0447635
Heightened Def Con from 0.0450912 to 0.0450912
Heightened Def Con from 0.045124 to 0.045124
Heightened Def Con from 0.0451567 to 0.0451567
Heightened Def Con from 0.0451895 to 0.0451895
Heightened Def Con from 0.0454189 to 0.0454189
Heightened Def Con from 0.0456482 to 0.0456482
Heightened Def Con from 0.0457138 to 0.0457138
Heightened Def Con from 0.0457465 to 0.0457465
Heightened Def Con from 0.0457793 to 0.0457793
Heightened Def Con from 0.0459101 to 0.0459101
Heightened Def Con from 0.046107 to 0.046107
Heightened Def Con from 0.0461398 to 0.0461398
Heightened Def Con from 0.0462051 to 0.0462051
Heightened Def Con from 0.0463364 to 0.0463364
Heightened Def Con from 0.0464347 to 0.0464347
Heightened Def Con from 0.0464674 to 0.0464674
Heightened Def Con from 0.0465985 to 0.0465985
Heightened Def Con from 0.0466313 to 0.0466313
Heightened Def Con from 0.046664 to 0.046664
Heightened Def Con from 0.0468279 to 0.0468279
Heightened Def Con from 0.0468607 to 0.0468607
Heightened Def Con from 0.0470898 to 0.0470898
Heightened Def Con from 0.0471228 to 0.0471228
Heightened Def Con from 0.0472539 to 0.0472539
Heightened Def Con from 0.0473522 to 0.0473522
Heightened Def Con from 0.0473849 to 0.0473849
Heightened Def Con from 0.0474177 to 0.0474177
Heightened Def Con from 0.047516 to 0.047516
Heightened Def Con from 0.0475816 