Circuit: * C:\Users\Lukas\Documents\RP2040_AS3394\spice files\Mixer.asc

Direct Newton iteration failed to find .op point.  (Use ".option noopiter" to skip.)
Starting Gmin stepping
Gmin = 10
Gmin = 1.07374
Gmin = 0.115292
Gmin = 0.0123794
Gmin = 0.00132923
Gmin = 0.000142725
Gmin = 1.5325e-005
Gmin = 1.6455e-006
Gmin = 1.76685e-007
Gmin = 1.89714e-008
Gmin = 2.03704e-009
Gmin = 2.18725e-010
Gmin = 2.34854e-011
Gmin = 2.52173e-012
Gmin = 2.70769e-013
Gmin = 0
Gmin stepping succeeded in finding the operating point.

Heightened Def Con from 0.00488253 to 0.00488253
Heightened Def Con from 0.00530852 to 0.00530852
Heightened Def Con from 0.00530852 +++++++++++++++++++++++to 0.00530852
Heightened Def Con from 0.00530852 ++++++++++++++++++++++to 0.00530852
Heightened Def Con from 0.00530852 ++++++++++++++++++++++to 0.00530852
Heightened Def Con from 0.00530852 ++++++++++++++++++++++to 0.00530852
Heightened Def Con from 0.00530852 ++++++++++++++++++++++to 0.00530852
Heightened Def Con from 0.00530852 ++++++++++++++++++++++to 0.00530852
Heightened Def Con from 0.00530852 ++++++++++++++++++++++to 0.00530852
Heightened Def Con from 0.00530852 ++++++++++++++++++++++to 0.00530852
Heightened Def Con from 0.00530852 ++++++++++++++++++++++to 0.00530852
Heightened Def Con from 0.00530852 ++++++++++++++++++++++to 0.00530852
Heightened Def Con from 0.00530852 ++++++++++++++++++++++to 0.00530852
Heightened Def Con from 0.00530852 ++++++++++++++++++++++to 0.00530852
Heightened Def Con from 0.00530852 ++++++++++++++++++++++to 0.00530852
Heightened Def Con from 0.00530852 ++++++++++++++++++++++to 0.00530852
Heightened Def Con from 0.00530852 ++++++++++++++++++++++to 0.00530852
Heightened Def Con from 0.00530852 ++++++++++++++++++++++to 0.00530852
Heightened Def Con from 0.00530852 ++++++++++++++++++++++to 0.00530852
Heightened Def Con from 0.00530852 ++++++++++++++++++++++to 0.00530852
Heightened Def Con from 0.00530852 ++++++++++++++++++++++to 0.00530852
Heightened Def Con from 0.00530852 ++++++++++++++++++++++to 0.00530852
Heightened Def Con from 0.00530852 ++++++++++++++++++++++to 0.00530852
Heightened Def Con from 0.00530852 ++++++++++++++++++++++to 0.00530852
Heightened Def Con from 0.00530852 ++++++++++++++++++++++to 0.00530852
Heightened Def Con from 0.00530852 ++++++++++++++++++++++to 0.00530852
Heightened Def Con from 0.00530852 ++++++++++++++++++++++to 0.00530852
Heightened Def Con from 0.00530852 ++++++++++++++++++++++to 0.00530852
Heightened Def Con from 0.00530852 ++++++++++++++++++++++to 0.00530852
Heightened Def Con from 0.00530852 ++++++++++++++++++++++to 0.00530852
Heightened Def Con from 0.00530852 ++++++++++++++++++++++to 0.00530852
Heightened Def Con from 0.00530852 ++++++++++++++++++++++to 0.00530852
Heightened Def Con from 0.00530852 ++++++++++++++++++++++to 0.00530852
Heightened Def Con from 0.00530852 ++++++++++++++++++++++to 0.00530852
Heightened Def Con from 0.00530852 ++++++++++++++++++++++to 0.00530852
Heightened Def Con from 0.00530852 ++++++++++++++++++++++to 0.00530852
Heightened Def Con from 0.00530852 ++++++++++++++++++++++to 0.00530852
Heightened Def Con from 0.00530852 ++++++++++++++++++++++to 0.00530852
Heightened Def Con from 0.00530852 ++++++++++++++++++++++to 0.00530852
Heightened Def Con from 0.00530852 ++++++++++++++++++++++to 0.00530852
Heightened Def Con from 0.00530852 ++++++++++++++++++++++to 0.00530852
Heightened Def Con from 0.00530852 ++++++++++++++++++++++to 0.00530852
Heightened Def Con from 0.00530852 ++++++++++++++++++++++to 0.00530852
Heightened Def Con from 0.00530852 ++++++++++++++++++++++to 0.00530852
Heightened Def Con from 0.00530852 ++++++++++++++++++++++to 0.00530852
Heightened Def Con from 0.00530852 ++++++++++++++++++++++to 0.00530852
Heightened Def Con from 0.00530852 ++++++++++++++++++++++to 0.00530852
Heightened Def Con from 0.00530852 ++++++++++++++++++++++to 0.00530852
Heightened Def Con from 0.00530852 ++++++++++++++++++++++to 0.00530852
Heightened Def Con from 0.00530852 ++++++++++++++++++++++to 0.00530852
Heightened Def Con from 0.00530852 ++++++++++++++++++++++to 0.00530852
Heightened Def Con from 0.00530852 ++++++++++++++++++++++to 0.00530852
Heightened Def Con from 0.00530852 ++++++++++++++++++++++to 0.00530852
Heightened Def Con from 0.00530852 ++++++++++++++++++++++to 0.00530852
Heightened Def Con from 0.00530852 ++++++++++++++++++++++to 0.00530852
Heightened Def Con from 0.00530852 ++++++++++++++++++++++to 0.00530852
Heightened Def Con from 0.00530852 ++++++++++++++++++++++to 0.00530852
Heightened Def Con from 0.00530852 ++++++++++++++++++++++to 0.00530852
Heightened Def Con from 0.00530852 ++++++++++++++++++++++to 0.00530852
Heightened Def Con from 0.00530852 ++++++++++++++++++++++to 0.00530852
Heightened Def Con from 0.00530852 ++++++++++++++++++++++to 0.00530852
Heightened Def Con from 0.00530852 ++++++++++++++++++++++to 0.00530852
Heightened Def Con from 0.00530852 ++++++++++++++++++++++to 0.00530852
Heightened Def Con from 0.00530852 ++++++++++++++++++++++to 0.00530852
Heightened Def Con from 0.00530852 ++++++++++++++++++++++to 0.00530852
Heightened Def Con from 0.00530852 ++++++++++++++++++++++to 0.00530852
Heightened Def Con from 0.00530852 ++++++++++++++++++++++to 0.00530852
Heightened Def Con from 0.00530852 ++++++++++++++++++++++to 0.00530852
Heightened Def Con from 0.00530852 ++++++++++++++++++++++to 0.00530852
Heightened Def Con from 0.00530852 ++++++++++++++++++++++to 0.00530852
Heightened Def Con from 0.00530852 ++++++++++++++++++++++to 0.00530852
Heightened Def Con from 0.00530852 ++++++++++++++++++++++to 0.00530852
Heightened Def Con from 0.00530852 ++++++++++++++++++++++to 0.00530852
Heightened Def Con from 0.00530852 ++++++++++++++++++++++to 0.00530852
Heightened Def Con from 0.00530852 ++++++++++++++++++++++to 0.00530852
Heightened Def Con from 0.00530852 ++++++++++++++++++++++to 0.00530852
Heightened Def Con from 0.00530852 ++++++++++++++++++++++to 0.00530852
Heightened Def Con from 0.00530852 ++++++++++++++++++++++to 0.00530852
Heightened Def Con from 0.00530852 ++++++++++++++++++++++to 0.00530852
Heightened Def Con from 0.00530852 ++++++++++++++++++++++to 0.00530852
Heightened Def Con from 0.00530852 ++++++++++++++++++++++to 0.00530852
Heightened Def Con from 0.00530852 ++++++++++++++++++++++to 0.00530852
Heightened Def Con from 0.00530852 ++++++++++++++++++++++to 0.00530852
Heightened Def Con from 0.00530852 ++++++++++++++++++++++to 0.00530852
Heightened Def Con from 0.00530852 ++++++++++++++++++++++to 0.00530852
Heightened Def Con from 0.00530852 ++++++++++++++++++++++to 0.00530852
Heightened Def Con from 0.00530852 ++++++++++++++++++++++to 0.00530852
Heightened Def Con from 0.00530852 ++++++++++++++++++++++to 0.00530852
Heightened Def Con from 0.00530852 ++++++++++++++++++++++to 0.00530852
Heightened Def Con from 0.00530852 ++++++++++++++++++++++to 0.00530852
Heightened Def Con from 0.00530852 ++++++++++++++++++++++to 0.00530852
Heightened Def Con from 0.00530852 ++++++++++++++++++++++to 0.00530852
Heightened Def Con from 0.00530852 ++++++++++++++++++++++to 0.00530852
Heightened Def Con from 0.00530852 ++++++++++++++++++++++to 0.00530852
Heightened Def Con from 0.00530852 ++++++++++++++++++++++to 0.00530852
Heightened Def Con from 0.00530852 ++++++++++++++++++++++to 0.00530852
Heightened Def Con from 0.00530852 ++++++++++++++++++++++to 0.00530852
Heightened Def Con from 0.00530852 ++++++++++++++++++++++to 0.00530852
Heightened Def Con from 0.00530852 ++++++++++++++++++++++to 0.00530852
Heightened Def Con from 0.00530852 ++++++++++++++++++++++to 0.00530852
Heightened Def Con from 0.00530852 ++++++++++++++++++++++to 0.00530852
Heightened Def Con from 0.00530852 ++++++++++++++++++++++to 0.00530852
Heightened Def Con from 0.00530852 ++++++++++++++++++++++to 0.00530852
Heightened Def Con from 0.00530852 ++++++++++++++++++++++to 0.00530852
Heightened Def Con from 0.00530852 ++++++++++++++++++++++to 0.00530852
Heightened Def Con from 0.00530852 ++++++++++++++++++++++to 0.00530852
Heightened Def Con from 0.00530852 ++++++++++++++++++++++to 0.00530852
Heightened Def Con from 0.00530852 ++++++++++++++++++++++to 0.00530852
Heightened Def Con from 0.00530852 ++++++++++++++++++++++to 0.00530852
Heightened Def Con from 0.00530852 ++++++++++++++++++++++to 0.00530852
Heightened Def Con from 0.00530852 ++++++++++++++++++++++to 0.00530852
Heightened Def Con from 0.00530852 ++++++++++++++++++++++to 0.00530852
Heightened Def Con from 0.00530852 ++++++++++++++++++++++to 0.00530852
Heightened Def Con from 0.00530852 ++++++++++++++++++++++to 0.00530852
Heightened Def Con from 0.00530852 ++++++++++++++++++++++to 0.00530852
Heightened Def Con from 0.00530852 ++++++++++++++++++++++to 0.00530852
Heightened Def Con from 0.00530852 ++++++++++++++++++++++to 0.00530852
Heightened Def Con from 0.00530852 ++++++++++++++++++++++to 0.00530852
Heightened Def Con from 0.00530852 ++++++++++++++++++++++to 0.00530852
Heightened Def Con from 0.00530852 ++++++++++++++++++++++to 0.00530852
Heightened Def Con from 0.00530852 ++++++++++++++++++++++to 0.00530852
Heightened Def Con from 0.00530852 ++++++++++++++++++++++to 0.00530852
Heightened Def Con from 0.00530852 ++++++++++++++++++++++to 0.00530852
Heightened Def Con from 0.00530852 ++++++++++++++++++++++to 0.00530852
Heightened Def Con from 0.00530852 ++++++++++++++++++++++to 0.00530852
Heightened Def Con from 0.00530852 ++++++++++++++++++++++to 0.00530852
Heightened Def Con from 0.00530852 ++++++++++++++++++++++to 0.00530852
Heightened Def Con from 0.00530852 ++++++++++++++++++++++to 0.00530852
Heightened Def Con from 0.00530852 ++++++++++++++++++++++to 0.00530852
Heightened Def Con from 0.00530852 ++++++++++++++++++++++to 0.00530852
Heightened Def Con from 0.00530852 ++++++++++++++++++++++to 0.00530852
Heightened Def Con from 0.00530852 ++++++++++++++++++++++to 0.00530852
Heightened Def Con from 0.00530852 ++++++++++++++++++++++to 0.00530852
Heightened Def Con from 0.00530852 ++++++++++++++++++++++to 0.00530852
Heightened Def Con from 0.00530852 ++++++++++++++++++++++to 0.00530852
Heightened Def Con from 0.00530852 ++++++++++++++++++++++to 0.00530852
Heightened Def Con from 0.00530852 ++++++++++++++++++++++to 0.00530852
Heightened Def Con from 0.00530852 ++++++++++++++++++++++to 0.00530852
Heightened Def Con from 0.00530852 ++++++++++++++++++++++to 0.00530852
Heightened Def Con from 0.00530852 ++++++++++++++++++++++to 0.00530852
Heightened Def Con from 0.00530852 ++++++++++++++++++++++to 0.00530852
Heightened Def Con from 0.00530852 ++++++++++++++++++++++to 0.00530852
Heightened Def Con from 0.00530852 ++++++++++++++++++++++to 0.00530852
Heightened Def Con from 0.00530852 ++++++++++++++++++++++to 0.00530852
Heightened Def Con from 0.00530852 ++++++++++++++++++++++to 0.00530852
Heightened Def Con from 0.00530852 ++++++++++++++++++++++to 0.00530852
Heightened Def Con from 0.00530852 ++++++++++++++++++++++to 0.00530852
Heightened Def Con from 0.00530852 ++++++++++++++++++++++to 0.00530852
Heightened Def Con from 0.00530852 ++++++++++++++++++++++to 0.00530852
Heightened Def Con from 0.00530852 ++++++++++++++++++++++to 0.00530852
Heightened Def Con from 0.00530852 ++++++++++++++++++++++to 0.00530852
Heightened Def Con from 0.00530852 ++++++++++++++++++++++to 0.00530852
Heightened Def Con from 0.00530852 ++++++++++++++++++++++to 0.00530852
Heightened Def Con from 0.00530852 ++++++++++++++++++++++to 0.00530852
Heightened Def Con from 0.00530852 ++++++++++++++++++++++to 0.00530852
Heightened Def Con from 0.00530852 ++++++++++++++++++++++to 0.00530852
Heightened Def Con from 0.00530852 ++++++++++++++++++++++to 0.00530852
Heightened Def Con from 0.00530852 ++++++++++++++++++++++to 0.00530852
Heightened Def Con from 0.00530852 ++++++++++++++++++++++to 0.00530852
Heightened Def Con from 0.00530852 ++++++++++++++++++++++to 0.00530852
Heightened Def Con from 0.00530852 ++++++++++++++++++++++to 0.00530852
Heightened Def Con from 0.00530852 ++++++++++++++++++++++to 0.00530852
Heightened Def Con from 0.00530852 ++++++++++++++++++++++to 0.00530852
Heightened Def Con from 0.00530852 ++++++++++++++++++++++to 0.00530852
Heightened Def Con from 0.00530852 ++++++++++++++++++++++to 0.00530852
Heightened Def Con from 0.00530852 ++++++++++++++++++++++to 0.00530852
Heightened Def Con from 0.00530852 ++++++++++++++++++++++to 0.00530852
Heightened Def Con from 0.00530852 ++++++++++++++++++++++to 0.00530852
Heightened Def Con from 0.00530852 ++++++++++++++++++++++to 0.00530852
Heightened Def Con from 0.00530852 ++++++++++++++++++++++to 0.00530852
Heightened Def Con from 0.00530852 ++++++++++++++++++++++to 0.00530852
Heightened Def Con from 0.00530852 ++++++++++++++++++++++to 0.00530852
Heightened Def Con from 0.00530852 ++++++++++++++++++++++to 0.00530852
Heightened Def Con from 0.00530852 ++++++++++++++++++++++to 0.00530852
Heightened Def Con from 0.00530852 ++++++++++++++++++++++to 0.00530852
Heightened Def Con from 0.00530852 ++++++++++++++++++++++to 0.00530852
Heightened Def Con from 0.00530852 ++++++++++++++++++++++to 0.00530852
Heightened Def Con from 0.00530852 ++++++++++++++++++++++to 0.00530852
Heightened Def Con from 0.00530852 ++++++++++++++++++++++to 0.00530852
Heightened Def Con from 0.00530852 ++++++++++++++++++++++to 0.00530852
Heightened Def Con from 0.00530852 ++++++++++++++++++++++to 0.00530852
Heightened Def Con from 0.00530852 ++++++++++++++++++++++to 0.00530852
Heightened Def Con from 0.00530852 ++++++++++++++++++++++to 0.00530852
Heightened Def Con from 0.00530852 ++++++++++++++++++++++to 0.00530852
Heightened Def Con from 0.00530852 ++++++++++++++++++++++to 0.00530852
Heightened Def Con from 0.00530852 ++++++++++++++++++++++to 0.00530852
Heightened Def Con from 0.00530852 ++++++++++++++++++++++to 0.00530852
Heightened Def Con from 0.00530852 ++++++++++++++++++++++to 0.00530852
Heightened Def Con from 0.00530852 ++++++++++++++++++++++to 0.00530852
Heightened Def Con from 0.00530852 ++++++++++++++++++++++to 0.00530852
Heightened Def Con from 0.00530852 ++++++++++++++++++++++to 0.00530852
Heightened Def Con from 0.00530852 ++++++++++++++++++++++to 0.00530852
Heightened Def Con from 0.00530852 ++++++++++++++++++++++to 0.00530852
Heightened Def Con from 0.00530852 ++++++++++++++++++++++to 0.00530852
Heightened Def Con from 0.00530852 ++++++++++++++++++++++to 0.00530852
Heightened Def Con from 0.00530852 ++++++++++++++++++++++to 0.00530852
Heightened Def Con from 0.00530852 ++++++++++++++++++++++to 0.00530852
Heightened Def Con from 0.00530852 ++++++++++++++++++++++to 0.00530852
Heightened Def Con from 0.00530852 ++++++++++++++++++++++to 0.00530852
Heightened Def Con from 0.00530852 ++++++++++++++++++++++to 0.00530852
Heightened Def Con from 0.00530852 ++++++++++++++++++++++to 0.00530852
Heightened Def Con from 0.00530852 ++++++++++++++++++++++to 0.00530852
Heightened Def Con from 0.00530852 ++++++++++++++++++++++to 0.00530852
Heightened Def Con from 0.00530852 ++++++++++++++++++++++to 0.00530852
Heightened Def Con from 0.00530852 ++++++++++++++++++++++to 0.00530852
Heightened Def Con from 0.00530852 ++++++++++++++++++++++to 0.00530852
Heightened Def Con from 0.00530852 ++++++++++++++++++++++to 0.00530852
Heightened Def Con from 0.00530852 ++++++++++++++++++++++to 0.00530852
Heightened Def Con from 0.00530852 ++++++++++++++++++++++to 0.00530852
Heightened Def Con from 0.00530852 ++++++++++++++++++++++to 0.00530852
Heightened Def Con from 0.00530852 ++++++++++++++++++++++to 0.00530852
Heightened Def Con from 0.00530852 ++++++++++++++++++++++to 0.00530852
Heightened Def Con from 0.00530852 ++++++++++++++++++++++to 0.00530852
Heightened Def Con from 0.00530852 ++++++++++++++++++++++to 0.00530852
Heightened Def Con from 0.00530852 ++++++++++++++++++++++to 0.00530852
Heightened Def Con from 0.00530852 ++++++++++++++++++++++to 0.00530852
Heightened Def Con from 0.00530852 ++++++++++++++++++++++to 0.00530852
Heightened Def Con from 0.00530852 ++++++++++++++++++++++to 0.00530852
Heightened Def Con from 0.00530852 ++++++++++++++++++++++to 0.00530852
Heightened Def Con from 0.00530852 ++++++++++++++++++++++to 0.00530852
Heightened Def Con from 0.00530852 ++++++++++++++++++++++to 0.00530852
Heightened Def Con from 0.00530852 ++++++++++++++++++++++to 0.00530852
Heightened Def Con from 0.00530852 ++++++++++++++++++++++to 0.00530852
Heightened Def Con from 0.00530852 ++++++++++++++++++++++to 0.00530852
Heightened Def Con from 0.00530852 ++++++++++++++++++++++to 0.00530852
Heightened Def Con from 0.00530852 ++++++++++++++++++++++to 0.00530852
Heightened Def Con from 0.00530852 ++++++++++++++++++++++to 0.00530852
Heightened Def Con from 0.00530852 ++++++++++++++++++++++to 0.00530852
Heightened Def Con from 0.00530852 ++++++++++++++++++++++to 0.00530852
Heightened Def Con from 0.00530852 ++++++++++++++++++++++to 0.00530852
Heightened Def Con from 0.00530852 ++++++++++++++++++++++to 0.00530852
Heightened Def Con from 0.00530852 ++++++++++++++++++++++to 0.00530852
Heightened Def Con from 0.00530852 ++++++++++++++++++++++to 0.00530852
Heightened Def Con from 0.00530852 ++++++++++++++++++++++to 0.00530852
Heightened Def Con from 0.00530852 ++++++++++++++++++++++to 0.00530852
Heightened Def Con from 0.00530852 ++++++++++++++++++++++to 0.00530852
Heightened Def Con from 0.00530852 ++++++++++++++++++++++to 0.00530852
Heightened Def Con from 0.00530852 ++++++++++++++++++++++to 0.00530852
Heightened Def Con from 0.00530852 ++++++++++++++++++++++to 0.00530852
Heightened Def Con from 0.00530852 ++++++++++++++++++++++to 0.00530852
Heightened Def Con from 0.00530852 ++++++++++++++++++++++to 0.00530852
Heightened Def Con from 0.00530852 ++++++++++++++++++++++to 0.00530852
Heightened Def Con from 0.00530852 ++++++++++++++++++++++to 0.00530852
Heightened Def Con from 0.00530852 ++++++++++++++++++++++to 0.00530852
Heightened Def Con from 0.00530852 ++++++++++++++++++++++to 0.00530852
Heightened Def Con from 0.00530852 ++++++++++++++++++++++to 0.00530852
Heightened Def Con from 0.00530852 ++++++++++++++++++++++to 0.00530852
Heightened Def Con from 0.00530852 ++++++++++++++++++++++to 0.00530852
Heightened Def Con from 0.00530852 ++++++++++++++++++++++to 0.00530852
Heightened Def Con from 0.00530852 ++++++++++++++++++++++to 0.00530852
Heightened Def Con from 0.00530852 ++++++++++++++++++++++to 0.00530852
Heightened Def Con from 0.00530852 ++++++++++++++++++++++to 0.00530852
Heightened Def Con from 0.00530852 ++++++++++++++++++++++to 0.00530852
Heightened Def Con from 0.00530852 ++++++++++++++++++++++to 0.00530852
Heightened Def Con from 0.00530852 ++++++++++++++++++++++to 0.00530852
Heightened Def Con from 0.00530852 ++++++++++++++++++++++to 0.00530852
Heightened Def Con from 0.00530852 ++++++++++++++++++++++to 0.00530852
Heightened Def Con from 0.00530852 ++++++++++++++++++++++to 0.00530852
Heightened Def Con from 0.00530852 ++++++++++++++++++++++to 0.00530852
Heightened Def Con from 0.00530852 ++++++++++++++++++++++to 0.00530852
Heightened Def Con from 0.00530852 ++++++++++++++++++++++to 0.00530852
Heightened Def Con from 0.00530852 ++++++++++++++++++++++to 0.00530852
Heightened Def Con from 0.00530852 ++++++++++++++++++++++to 0.00530852
Heightened Def Con from 0.00530852 ++++++++++++++++++++++to 0.00530852
Heightened Def Con from 0.00530852 ++++++++++++++++++++++to 0.00530852
Heightened Def Con from 0.00530852 ++++++++++++++++++++++to 0.00530852
Heightened Def Con from 0.00530852 ++++++++++++++++++++++to 0.00530852
Heightened Def Con from 0.00530852 ++++++++++++++++++++++to 0.00530852
Heightened Def Con from 0.00530852 ++++++++++++++++++++++to 0.00530852
Heightened Def Con from 0.00530852 ++++++++++++++++++++++to 0.00530852
Heightened Def Con from 0.00530852 ++++++++++++++++++++++to 0.00530852
Heightened Def Con from 0.00530852 ++++++++++++++++++++++to 0.00530852
Heightened Def Con from 0.00530852 ++++++++++++++++++++++to 0.00530852
Heightened Def Con from 0.00530852 ++++++++++++++++++++++to 0.00530852
Heightened Def Con from 0.00530852 ++++++++++++++++++++++to 0.00530852
Heightened Def Con from 0.00530852 ++++++++++++++++++++++to 0.00530852
Heightened Def Con from 0.00530852 ++++++++++++++++++++++to 0.00530852
Heightened Def Con from 0.00530852 ++++++++++++++++++++++to 0.00530852
Heightened Def Con from 0.00530852 ++++++++++++++++++++++to 0.00530852
Heightened Def Con from 0.00530852 ++++++++++++++++++++++to 0.00530852
Heightened Def Con from 0.00530852 ++++++++++++++++++++++to 0.00530852
Heightened Def Con from 0.00530852 ++++++++++++++++++++++to 0.00530852
Heightened Def Con from 0.00530852 ++++++++++++++++++++++to 0.00530852
Heightened Def Con from 0.00530852 ++++++++++++++++++++++to 0.00530852
Heightened Def Con from 0.00530852 ++++++++++++++++++++++to 0.00530852
Heightened Def Con from 0.00530852 ++++++++++++++++++++++to 0.00530852
Heightened Def Con from 0.00530852 ++++++++++++++++++++++to 0.00530852
Heightened Def Con from 0.00530852 ++++++++++++++++++++++to 0.00530852
Heightened Def Con from 0.00530852 ++++++++++++++++++++++to 0.00530852
Heightened Def Con from 0.00530852 ++++++++++++++++++++++to 0.00530852
Heightened Def Con from 0.00530852 ++++++++++++++++++++++to 0.00530852
Heightened Def Con from 0.00530852 ++++++++++++++++++++++to 0.00530852
Heightened Def Con from 0.00530852 ++++++++++++++++++++++to 0.00530852
Heightened Def Con from 0.00530852 ++++++++++++++++++++++to 0.00530852
Heightened Def Con from 0.00530852 ++++++++++++++++++++++to 0.00530852
Heightened Def Con from 0.00530852 ++++++++++++++++++++++to 0.00530852
Heightened Def Con from 0.00530852 ++++++++++++++++++++++to 0.00530852
Heightened Def Con from 0.00530852 ++++++++++++++++++++++to 0.00530852
Heightened Def Con from 0.00530852 ++++++++++++++++++++++to 0.00530852
Heightened Def Con from 0.00530852 ++++++++++++++++++++++to 0.00530852
Heightened Def Con from 0.00530852 ++++++++++++++++++++++to 0.00530852
Heightened Def Con from 0.00530852 ++++++++++++++++++++++to 0.00530852
Heightened Def Con from 0.00530852 ++++++++++++++++++++++to 0.00530852
Heightened Def Con from 0.00530852 ++++++++++++++++++++++to 0.00530852
Heightened Def Con from 0.00530852 ++++++++++++++++++++++to 0.00530852
Heightened Def Con from 0.00530852 ++++++++++++++++++++++to 0.00530852
Heightened Def Con from 0.00530852 +++++++++++++++to 0.00530852
Heightened Def Con from 0.00530852 to 0.00530852
Heightened Def Con from 0.00530852 to 0.00530852
Heightened Def Con from 0.00540915 to 0.00540915
Heightened Def Con from 0.00547466 to 0.00547466
Heightened Def Con from 0.00547466 +++++++++++++++++++++to 0.00547466
Heightened Def Con from 0.00547481 to 0.00547481
Heightened Def Con from 0.00547481 +++++++++++++++++++++to 0.00547481
Heightened Def Con from 0.00547492 to 0.00547492
Heightened Def Con from 0.00557297 to 0.00557297
Heightened Def Con from 0.00560574 to 0.00560574
Heightened Def Con from 0.00573683 to 0.00573683
Heightened Def Con from 0.00573683 to 0.00573683
Heightened Def Con from 0.00580235 to 0.00580235
Heightened Def Con from 0.00580235 +++++++++++++++++++++to 0.00580235
Heightened Def Con from 0.00593318 to 0.00593319
Heightened Def Con from 0.00606425 +to 0.00606425
Heightened Def Con from 0.0061628 to 0.0061628
Heightened Def Con from 0.00626087 to 0.00626087
Heightened Def Con from 0.00626087 +++++++++++++++++++++to 0.00626087
Heightened Def Con from 0.00632665 to 0.00632665
Heightened Def Con from 0.00655577 to 0.00655577
Heightened Def Con from 0.00655577 to 0.00655577
Heightened Def Con from 0.00655577 to 0.00655577
Heightened Def Con from 0.00655577 to 0.00655577
Heightened Def Con from 0.00658879 to 0.00658879
Heightened Def Con from 0.00665408 to 0.00665408
Heightened Def Con from 0.00665408 to 0.00665408
Heightened Def Con from 0.00668709 to 0.00668709
Heightened Def Con from 0.00668709 to 0.00668709
Heightened Def Con from 0.00675262 to 0.00675262
Heightened Def Con from 0.00675262 to 0.00675262
Heightened Def Con from 0.00691647 to 0.00691647
Heightened Def Con from 0.00691647 to 0.00691647
Heightened Def Con from 0.00691647 to 0.00691647
Heightened Def Con from 0.00691647 to 0.00691647
Heightened Def Con from 0.00691647 to 0.00691647
Heightened Def Con from 0.00698175 to 0.00698176
Heightened Def Con from 0.00704729 to 0.00704729
Heightened Def Con from 0.00711306 to 0.00711306
Heightened Def Con from 0.00711306 to 0.00711306
Heightened Def Con from 0.00711306 to 0.00711306
Heightened Def Con from 0.00734246 to 0.00734246
Heightened Def Con from 0.00737521 to 0.00737521
Heightened Def Con from 0.00747353 to 0.00747353
Heightened Def Con from 0.00763736 to 0.00763736
Heightened Def Con from 0.00770265 to 0.00770265
Heightened Def Con from 0.00786674 to 0.00786675
Heightened Def Con from 0.00803059 to 0.00803059
Heightened Def Con from 0.00819417 to 0.00819417
Heightened Def Con from 0.00848909 to 0.0084891
Heightened Def Con from 0.00855488 to 0.00855488
Heightened Def Con from 0.00855488 to 0.00855488
Heightened Def Con from 0.00858762 to 0.00858762
Heightened Def Con from 0.00868593 to 0.00868593
Heightened Def Con from 0.00878401 to 0.00878401
Heightened Def Con from 0.0088823 to 0.0088823
Heightened Def Con from 0.0088823 +++++++++++++++++++++to 0.0088823
Heightened Def Con from 0.00891532 to 0.00891533
Heightened Def Con from 0.00898086 to 0.00898086
Heightened Def Con from 0.00907916 to 0.00907916
Heightened Def Con from 0.00914445 to 0.00914445
Heightened Def Con from 0.00914445 +++++++++++++++++++++to 0.00914445
Heightened Def Con from 0.00914464 to 0.00914464
Heightened Def Con from 0.009243 to 0.009243
Heightened Def Con from 0.009243 to 0.009243
Heightened Def Con from 0.009243 to 0.009243
Heightened Def Con from 0.009243 +++++++++++++++++++++to 0.009243
Heightened Def Con from 0.00927552 to 0.00927552
Heightened Def Con from 0.00930829 to 0.0093083
Heightened Def Con from 0.00953792 to 0.00953792
Heightened Def Con from 0.00953792 to 0.00953792
Heightened Def Con from 0.00953792 to 0.00953792
Heightened Def Con from 0.00953792 to 0.00953792
Heightened Def Con from 0.00953792 to 0.00953792
Heightened Def Con from 0.00953792 +++++++++++++++++++++to 0.00953792
Heightened Def Con from 0.00953806 to 0.00953806
Heightened Def Con from 0.00957067 to 0.00957068
Heightened Def Con from 0.00973454 to 0.00973454
Heightened Def Con from 0.00986534 to 0.00986534
Heightened Def Con from 0.00996389 to 0.00996389
Heightened Def Con from 0.00999664 to 0.00999664
Heightened Def Con from 0.00999664 +++++++++++++++++++++to 0.00999664
Heightened Def Con from 0.00999679 to 0.00999679
Heightened Def Con from 0.0100622 to 0.0100622
Heightened Def Con from 0.0101602 to 0.0101602
Heightened Def Con from 0.0102258 to 0.0102258
Heightened Def Con from 0.0103243 to 0.0103244
Heightened Def Con from 0.0106848 to 0.0106848
Heightened Def Con from 0.0109795 to 0.0109795
Heightened Def Con from 0.0110452 to 0.0110452
Heightened Def Con from 0.0111435 to 0.0111435
Heightened Def Con from 0.0112419 to 0.0112419
Heightened Def Con from 0.0113074 to 0.0113074
Heightened Def Con from 0.011504 to 0.011504
Heightened Def Con from 0.0115365 to 0.0115365
Heightened Def Con from 0.0118645 to 0.0118645
Heightened Def Con from 0.01193 to 0.01193
Heightened Def Con from 0.012028 to 0.012028
Heightened Def Con from 0.0120938 to 0.0120938
Heightened Def Con from 0.0121591 to 0.0121591
Heightened Def Con from 0.0121921 to 0.0121921
Heightened Def Con from 0.0122249 to 0.0122249
Heightened Def Con from 0.012356 to 0.012356
Heightened Def Con from 0.0123887 to 0.0123887
Heightened Def Con from 0.0124215 to 0.0124215
Heightened Def Con from 0.012454 to 0.012454
Heightened Def Con from 0.0125198 to 0.0125198
Heightened Def Con from 0.0128472 to 0.0128472
Heightened Def Con from 0.0129455 to 0.0129455
Heightened Def Con from 0.0129785 to 0.0129786
Heightened Def Con from 0.0130768 to 0.0130769
Heightened Def Con from 0.0131096 to 0.0131096
Heightened Def Con from 0.0131424 to 0.0131424
Heightened Def Con from 0.0132077 to 0.0132077
Heightened Def Con from 0.0133062 to 0.0133062
Heightened Def Con from 0.0134701 to 0.0134701
Heightened Def Con from 0.0136339 to 0.0136339
Heightened Def Con from 0.0137322 to 0.0137322
Heightened Def Con from 0.013765 to 0.013765
Heightened Def Con from 0.0138305 to 0.0138305
Heightened Def Con from 0.0138633 to 0.0138633
Heightened Def Con from 0.0139616 to 0.0139616
Heightened Def Con from 0.0139943 to 0.0139944
Heightened Def Con from 0.0140271 to 0.0140271
Heightened Def Con from 0.0142237 to 0.0142237
Heightened Def Con from 0.0143548 to 0.0143548
Heightened Def Con from 0.0143876 to 0.0143876
Heightened Def Con from 0.0145514 to 0.0145514
Heightened Def Con from 0.0146167 to 0.0146167
Heightened Def Con from 0.0146497 to 0.0146497
Heightened Def Con from 0.0146825 to 0.0146825
Heightened Def Con from 0.014748 to 0.014748
Heightened Def Con from 0.0147808 to 0.0147808
Heightened Def Con from 0.0148136 to 0.0148136
Heightened Def Con from 0.0148791 to 0.0148791
Heightened Def Con from 0.0149774 to 0.0149774
Heightened Def Con from 0.0150101 to 0.0150102
Heightened Def Con from 0.0150754 to 0.0150755
Heightened Def Con from 0.0151412 to 0.0151412
Heightened Def Con from 0.0152393 to 0.0152393
Heightened Def Con from 0.0153378 to 0.0153378
Heightened Def Con from 0.0154362 to 0.0154362
Heightened Def Con from 0.0155017 to 0.0155017
Heightened Def Con from 0.0156983 to 0.0156983
Heightened Def Con from 0.0157636 to 0.0157636
Heightened Def Con from 0.0158294 to 0.0158294
Heightened Def Con from 0.0158949 to 0.0158949
Heightened Def Con from 0.0159604 to 0.0159604
Heightened Def Con from 0.0160587 to 0.0160587
Heightened Def Con from 0.0161898 to 0.0161898
Heightened Def Con from 0.0162554 to 0.0162554
Heightened Def Con from 0.0163209 to 0.0163209
Heightened Def Con from 0.0163536 to 0.0163536
Heightened Def Con from 0.0163864 to 0.0163864
Heightened Def Con from 0.016583 to 0.016583
Heightened Def Con from 0.0166813 to 0.0166813
Heightened Def Con from 0.0167796 to 0.0167796
Heightened Def Con from 0.0168124 to 0.0168124
Heightened Def Con from 0.0170418 to 0.0170418
Heightened Def Con from 0.0174678 to 0.0174678
Heightened Def Con from 0.0175661 to 0.0175661
Heightened Def Con from 0.0177952 to 0.0177952
Heightened Def Con from 0.017861 to 0.017861
Heightened Def Con from 0.0181887 to 0.0181887
Heightened Def Con from 0.0184178 to 0.0184178
Heightened Def Con from 0.0185819 to 0.0185819
Heightened Def Con from 0.0186144 to 0.0186144
Heightened Def Con from 0.0186474 to 0.0186474
Heightened Def Con from 0.0190406 to 0.0190406
Heightened Def Con from 0.0191389 to 0.0191389
Heightened Def Con from 0.0194338 to 0.0194339
Heightened Def Con from 0.0194664 +to 0.0194664
Heightened Def Con from 0.0195649 to 0.0195649
Heightened Def Con from 0.0196632 to 0.0196632
Heightened Def Con from 0.019696 to 0.019696
Heightened Def Con from 0.0198271 to 0.0198271
Heightened Def Con from 0.0198926 to 0.0198926
Heightened Def Con from 0.0199581 to 0.0199581
Heightened Def Con from 0.0200892 to 0.0200892
Heightened Def Con from 0.0201547 to 0.0201547
Heightened Def Con from 0.020253 to 0.0202531
Heightened Def Con from 0.0203839 to 0.0203839
Heightened Def Con from 0.0204824 to 0.0204824
Heightened Def Con from 0.020548 to 0.020548
Heightened Def Con from 0.0207443 to 0.0207443
Heightened Def Con from 0.0209084 to 0.0209084
Heightened Def Con from 0.0210723 to 0.0210723
Heightened Def Con from 0.0212033 to 0.0212033
Heightened Def Con from 0.0212358 to 0.0212358
Heightened Def Con from 0.0213016 to 0.0213016
Heightened Def Con from 0.0213672 to 0.0213672
Heightened Def Con from 0.0214982 to 0.0214982
Heightened Def Con from 0.0217604 to 0.0217604
Heightened Def Con from 0.0218259 to 0.0218259
Heightened Def Con from 0.021924 to 0.021924
Heightened Def Con from 0.0219567 to 0.0219567
Heightened Def Con from 0.0220225 to 0.0220225
Heightened Def Con from 0.0221208 to 0.0221208
Heightened Def Con from 0.0223172 to 0.0223172
Heightened Def Con from 0.0224485 to 0.0224485
Heightened Def Con from 0.0227434 to 0.0227434
Heightened Def Con from 0.0227762 to 0.0227762
Heightened Def Con from 0.0228745 to 0.0228745
Heightened Def Con from 0.0229072 to 0.0229072
Heightened Def Con from 0.0230711 to 0.0230711
Heightened Def Con from 0.0231038 to 0.0231038
Heightened Def Con from 0.0231694 to 0.0231694
Heightened Def Con from 0.023333 to 0.023333
Heightened Def Con from 0.023366 to 0.023366
Heightened Def Con from 0.0234968 to 0.0234968
Heightened Def Con from 0.0235951 to 0.0235951
Heightened Def Con from 0.0237592 to 0.0237592
Heightened Def Con from 0.023792 to 0.023792
Heightened Def Con from 0.0238903 to 0.0238903
Heightened Def Con from 0.0239556 to 0.0239556
Heightened Def Con from 0.0242177 to 0.0242177
Heightened Def Con from 0.0242835 to 0.0242835
Heightened Def Con from 0.0244146 to 0.0244146
Heightened Def Con from 0.0244799 to 0.0244799
Heightened Def Con from 0.0246767 to 0.0246767
Heightened Def Con from 0.024742 to 0.024742
Heightened Def Con from 0.0248078 to 0.0248078
Heightened Def Con from 0.0248405 to 0.0248405
Heightened Def Con from 0.0249061 to 0.0249061
Heightened Def Con from 0.0251027 to 0.0251027
Heightened Def Con from 0.0253649 to 0.0253649
Heightened Def Con from 0.0253976 to 0.0253976
Heightened Def Con from 0.0254959 to 0.0254959
Heightened Def Con from 0.0255287 to 0.0255287
Heightened Def Con from 0.025594 to 0.025594
Heightened Def Con from 0.0256595 to 0.0256595
Heightened Def Con from 0.0257581 to 0.0257581
Heightened Def Con from 0.0257908 to 0.0257908
Heightened Def Con from 0.0260855 to 0.0260855
Heightened Def Con from 0.0261185 to 0.0261185
Heightened Def Con from 0.026184 to 0.026184
Heightened Def Con from 0.0263151 to 0.0263151
Heightened Def Con from 0.0264132 to 0.0264132
Heightened Def Con from 0.0265445 to 0.0265445
Heightened Def Con from 0.0266098 to 0.0266098
Heightened Def Con from 0.0267411 to 0.0267411
Heightened Def Con from 0.0267736 to 0.0267736
Heightened Def Con from 0.0268722 to 0.0268722
Heightened Def Con from 0.0269049 to 0.0269049
Heightened Def Con from 0.0269377 to 0.0269377
Heightened Def Con from 0.0269705 to 0.0269705
Heightened Def Con from 0.0270033 to 0.0270033
Heightened Def Con from 0.0271016 to 0.0271016
Heightened Def Con from 0.0271669 to 0.0271669
Heightened Def Con from 0.0273637 to 0.0273637
Heightened Def Con from 0.0275273 to 0.0275273
Heightened Def Con from 0.0276256 to 0.0276256
Heightened Def Con from 0.0277242 to 0.0277242
Heightened Def Con from 0.0277894 to 0.0277894
Heightened Def Con from 0.0279535 to 0.0279535
Heightened Def Con from 0.0283467 to 0.0283468
Heightened Def Con from 0.028412 to 0.028412
Heightened Def Con from 0.0284778 to 0.0284778
Heightened Def Con from 0.0286742 to 0.0286742
Heightened Def Con from 0.028871 to 0.028871
Heightened Def Con from 0.0289363 to 0.0289363
Heightened Def Con from 0.0291657 to 0.0291657
Heightened Def Con from 0.0291987 to 0.0291987
Heightened Def Con from 0.0292643 to 0.0292643
Heightened Def Con from 0.029297 to 0.029297
Heightened Def Con from 0.0293295 to 0.0293295
Heightened Def Con from 0.0293625 to 0.0293625
Heightened Def Con from 0.0294609 to 0.0294609
Heightened Def Con from 0.0294936 to 0.0294936
Heightened Def Con from 0.0295592 to 0.0295592
Heightened Def Con from 0.0296572 to 0.0296572
Heightened Def Con from 0.0298538 to 0.0298538
Heightened Def Con from 0.0298868 to 0.0298868
Heightened Def Con from 0.0299196 to 0.0299196
Heightened Def Con from 0.030149 to 0.030149
Heightened Def Con from 0.0301817 to 0.0301817
Heightened Def Con from 0.0302473 to 0.0302473
Heightened Def Con from 0.03028 to 0.0302801
Heightened Def Con from 0.0303128 to 0.0303128
Heightened Def Con from 0.0303456 to 0.0303456
Heightened Def Con from 0.0303784 to 0.0303784
Heightened Def Con from 0.0305094 to 0.0305094
Heightened Def Con from 0.0306405 to 0.0306405
Heightened Def Con from 0.0307713 to 0.0307713
Heightened Def Con from 0.0310337 to 0.0310337
Heightened Def Con from 0.0310665 to 0.0310665
Heightened Def Con from 0.031132 to 0.031132
Heightened Def Con from 0.0312303 to 0.0312303
Heightened Def Con from 0.0313614 to 0.0313614
Heightened Def Con from 0.0313942 to 0.0313942
Heightened Def Con from 0.0314269 to 0.0314269
Heightened Def Con from 0.0315252 to 0.0315252
Heightened Def Con from 0.031558 to 0.031558
Heightened Def Con from 0.0316563 to 0.0316563
Heightened Def Con from 0.0317874 to 0.0317874
Heightened Def Con from 0.0318201 to 0.0318201
Heightened Def Con from 0.0319185 to 0.0319185
Heightened Def Con from 0.0319512 to 0.0319512
Heightened Def Con from 0.0320495 to 0.0320495
Heightened Def Con from 0.0320823 to 0.0320823
Heightened Def Con from 0.0321151 to 0.0321151
Heightened Def Con from 0.0321803 to 0.0321804
Heightened Def Con from 0.0322134 to 0.0322134
Heightened Def Con from 0.0322789 to 0.0322789
Heightened Def Con from 0.0323442 to 0.0323442
Heightened Def Con from 0.0323772 to 0.0323772
Heightened Def Con from 0.03241 to 0.03241
Heightened Def Con from 0.0324753 to 0.0324753
Heightened Def Con from 0.0325083 to 0.0325083
Heightened Def Con from 0.0326719 to 0.0326719
Heightened Def Con from 0.0327704 to 0.0327704
Heightened Def Con from 0.0328032 to 0.0328032
Heightened Def Con from 0.0330653 to 0.0330653
Heightened Def Con from 0.0333603 to 0.0333603
Heightened Def Con from 0.033393 to 0.033393
Heightened Def Con from 0.0334586 to 0.0334586
Heightened Def Con from 0.0334913 to 0.0334913
Heightened Def Con from 0.0335241 to 0.0335241
Heightened Def Con from 0.0335568 to 0.0335568
Heightened Def Con from 0.0335894 to 0.0335894
Heightened Def Con from 0.0336224 to 0.0336224
Heightened Def Con from 0.0336549 to 0.0336549
Heightened Def Con from 0.0338845 to 0.0338845
Heightened Def Con from 0.0339171 to 0.0339171
Heightened Def Con from 0.0341139 to 0.0341139
Heightened Def Con from 0.0341467 to 0.0341467
Heightened Def Con from 0.0341795 to 0.0341795
Heightened Def Con from 0.0342122 to 0.0342122
Heightened Def Con from 0.0342777 to 0.0342777
Heightened Def Con from 0.0343105 to 0.0343105
Heightened Def Con from 0.0343433 to 0.0343433
Heightened Def Con from 0.034376 to 0.034376
Heightened Def Con from 0.0344744 to 0.0344744
Heightened Def Con from 0.0346052 to 0.0346052
Heightened Def Con from 0.0346382 to 0.0346382
Heightened Def Con from 0.034671 to 0.034671
Heightened Def Con from 0.0347365 to 0.0347365
Heightened Def Con from 0.0347693 to 0.0347693
Heightened Def Con from 0.034802 to 0.034802
Heightened Def Con from 0.0348348 to 0.0348348
Heightened Def Con from 0.0349659 to 0.0349659
Heightened Def Con from 0.0349986 to 0.0349986
Heightened Def Con from 0.0350314 to 0.0350314
Heightened Def Con from 0.0350642 to 0.0350642
Heightened Def Con from 0.0351297 to 0.0351297
Heightened Def Con from 0.0351625 to 0.0351625
Heightened Def Con from 0.0352933 to 0.0352933
Heightened Def Con from 0.0353261 to 0.0353261
Heightened Def Con from 0.0354244 to 0.0354244
Heightened Def Con from 0.0355885 to 0.0355885
Heightened Def Con from 0.035654 to 0.035654
Heightened Def Con from 0.035654 to 0.035654
Heightened Def Con from 0.0356868 to 0.0356868
Heightened Def Con from 0.0357523 to 0.0357523
Heightened Def Con from 0.0357851 to 0.0357851
Heightened Def Con from 0.0358178 to 0.0358178
Heightened Def Con from 0.0358834 to 0.0358834
Heightened Def Con from 0.0359161 to 0.0359161
Heightened Def Con from 0.0361783 to 0.0361783
Heightened Def Con from 0.0362111 to 0.0362111
Heightened Def Con from 0.0362436 to 0.0362436
Heightened Def Con from 0.0362766 to 0.0362766
Heightened Def Con from 0.0363421 to 0.0363421
Heightened Def Con from 0.0363749 to 0.0363749
Heightened Def Con from 0.0365713 to 0.0365713
Heightened Def Con from 0.0366698 to 0.0366698
Heightened Def Con from 0.0367353 to 0.0367353
Heightened Def Con from 0.0368336 to 0.0368337
Heightened Def Con from 0.0369317 to 0.0369317
Heightened Def Con from 0.0369647 to 0.0369647
Heightened Def Con from 0.0370958 to 0.0370958
Heightened Def Con from 0.0371941 to 0.0371941
Heightened Def Con from 0.0372269 to 0.0372269
Heightened Def Con from 0.0372922 to 0.0372922
Heightened Def Con from 0.0373252 to 0.0373252
Heightened Def Con from 0.0373577 to 0.0373577
Heightened Def Con from 0.0373907 to 0.0373907
Heightened Def Con from 0.037456 to 0.037456
Heightened Def Con from 0.0375871 to 0.0375871
Heightened Def Con from 0.0376201 to 0.0376201
Heightened Def Con from 0.0376854 to 0.0376854
Heightened Def Con from 0.0378822 to 0.0378822
Heightened Def Con from 0.037915 to 0.037915
Heightened Def Con from 0.0379803 to 0.0379803
Heightened Def Con from 0.0380458 to 0.0380458
Heightened Def Con from 0.0381444 to 0.0381444
Heightened Def Con from 0.0382424 to 0.0382424
Heightened Def Con from 0.0382754 to 0.0382754
Heightened Def Con from 0.0383407 to 0.0383407
Heightened Def Con from 0.0383737 to 0.0383737
Heightened Def Con from 0.0384065 to 0.0384065
Heightened Def Con from 0.0385373 to 0.0385373
Heightened Def Con from 0.0386687 to 0.0386687
Heightened Def Con from 0.0387014 to 0.0387014
Heightened Def Con from 0.038767 to 0.038767
Heightened Def Con from 0.0388325 to 0.0388325
Heightened Def Con from 0.0388653 to 0.0388653
Heightened Def Con from 0.038898 to 0.038898
Heightened Def Con from 0.0390947 to 0.0390947
Heightened Def Con from 0.0391599 to 0.0391599
Heightened Def Con from 0.0391929 to 0.0391929
Heightened Def Con from 0.0392257 to 0.0392257
Heightened Def Con from 0.039324 to 0.039324
Heightened Def Con from 0.0393895 to 0.0393895
Heightened Def Con from 0.0394223 to 0.0394223
Heightened Def Con from 0.0396189 to 0.0396189
Heightened Def Con from 0.0396845 to 0.0396845
Heightened Def Con from 0.0399139 to 0.0399139
Heightened Def Con from 0.0403398 to 0.0403398
Heightened Def Con from 0.0403726 to 0.0403726
Heightened Def Con from 0.0404381 to 0.0404381
Heightened Def Con from 0.0404709 to 0.0404709
Heightened Def Con from 0.0406345 to 0.0406345
Heightened Def Con from 0.0407003 to 0.0407003
Heightened Def Con from 0.0408966 to 0.0408966
Heightened Def Con from 0.0409624 to 0.0409624
Heightened Def Con from 0.041028 to 0.041028
Heightened Def Con from 0.0410607 to 0.0410607
Heightened Def Con from 0.0412246 to 0.0412246
Heightened Def Con from 0.0412899 to 0.0412899
Heightened Def Con from 0.0414212 to 0.0414212
Heightened Def Con from 0.0415195 to 0.0415195
Heightened Def Con from 0.041585 to 0.041585
Heightened Def Con from 0.0417161 to 0.0417161
Heightened Def Con from 0.0418469 to 0.0418469
Heightened Def Con from 0.0419127 to 0.0419127
Heightened Def Con from 0.0419455 to 0.0419455
Heightened Def Con from 0.0421091 to 0.0421091
Heightened Def Con from 0.0421421 to 0.0421421
Heightened Def Con from 0.0421748 to 0.0421748
Heightened Def Con from 0.0422076 to 0.0422076
Heightened Def Con from 0.0422404 to 0.0422404
Heightened Def Con from 0.0422731 to 0.0422731
Heightened Def Con from 0.0425025 to 0.0425025
Heightened Def Con from 0.0426991 to 0.0426991
Heightened Def Con from 0.042863 to 0.042863
Heightened Def Con from 0.0428957 to 0.0428957
Heightened Def Con from 0.0430596 to 0.0430596
Heightened Def Con from 0.0430923 to 0.0430924
Heightened Def Con from 0.0431251 to 0.0431251
Heightened Def Con from 0.0431579 to 0.0431579
Heightened Def Con from 0.0432234 to 0.0432234
Heightened Def Con from 0.043289 to 0.043289
Heightened Def Con from 0.0433545 to 0.0433545
Heightened Def Con from 0.0434856 to 0.0434856
Heightened Def Con from 0.0435511 to 0.0435511
Heightened Def Con from 0.0435839 to 0.0435839
Heightened Def Con from 0.0436491 to 0.0436491
Heightened Def Con from 0.0439768 to 0.0439768
Heightened Def Con from 0.0441079 to 0.0441079
Heightened Def Con from 0.0443375 to 0.0443375
Heightened Def Con from 0.0444356 to 0.0444356
Heightened Def Con from 0.0444686 to 0.0444686
Heightened Def Con from 0.0445667 to 0.0445667
Heightened Def Con from 0.044665 to 0.044665
Heightened Def Con from 0.0447635 to 0.0447635
Heightened Def Con from 0.0450912 to 0.0450912
Heightened Def Con from 0.045124 to 0.045124
Heightened Def Con from 0.0451567 to 0.0451567
Heightened Def Con from 0.0451895 to 0.0451895
Heightened Def Con from 0.0454189 to 0.0454189
Heightened Def Con from 0.0456482 to 0.0456482
Heightened Def Con from 0.0457138 to 0.0457138
Heightened Def Con from 0.0457465 to 0.0457465
Heightened Def Con from 0.0457793 to 0.0457793
Heightened Def Con from 0.0459101 to 0.0459101
Heightened Def Con from 0.046107 to 0.046107
Heightened Def Con from 0.0461398 to 0.0461398
Heightened Def Con from 0.0462051 to 0.0462051
Heightened Def Con from 0.0463364 to 0.0463364
Heightened Def Con from 0.0464347 to 0.0464347
Heightened Def Con from 0.0464674 to 0.0464674
Heightened Def Con from 0.0465985 to 0.0465985
Heightened Def Con from 0.0466313 to 0.0466313
Heightened Def Con from 0.046664 to 0.046664
Heightened Def Con from 0.0468279 to 0.0468279
Heightened Def Con from 0.0468607 to 0.0468607
Heightened Def Con from 0.0470898 to 0.0470898
Heightened Def Con from 0.0471228 to 0.0471228
Heightened Def Con from 0.0472539 to 0.0472539
Heightened Def Con from 0.0473522 to 0.0473522
Heightened Def Con from 0.0473849 to 0.0473849
Heightened Def Con from 0.0474177 to 0.0474177
Heightened Def Con from 0.047516 to 0.047516
Heightened Def Con from 0.0475816 to 0.0475816
Heightened Def Con from 0.0476143 to 0.0476143
Heightened Def Con from 0.0476799 to 0.0476799
Heightened Def Con from 0.047942 to 0.047942
Heightened Def Con from 0.0480075 to 0.0480075
Heightened Def Con from 0.0480731 to 0.0480731
Heightened Def Con from 0.0481386 to 0.0481386
Heightened Def Con from 0.0482041 to 0.0482041
Heightened Def Con from 0.0483025 to 0.0483025
Heightened Def Con from 0.0483352 to 0.0483352
Heightened Def Con from 0.0484335 to 0.0484335
Heightened Def Con from 0.0485318 to 0.0485318
Heightened Def Con from 0.0485974 to 0.0485974
Heightened Def Con from 0.0488267 to 0.0488267
Heightened Def Con from 0.048925 to 0.0489251
Heightened Def Con from 0.0490559 to 0.0490559
Heightened Def Con from 0.0491872 to 0.0491872
Heightened Def Con from 0.0493838 to 0.0493838
Heightened Def Con from 0.0494493 to 0.0494493
Heightened Def Con from 0.0495149 to 0.0495149
Heightened Def Con from 0.0496132 to 0.0496132
Heightened Def Con from 0.0496459 to 0.0496459
Heightened Def Con from 0.0496787 to 0.0496787
Heightened Def Con from 0.0498426 to 0.0498426
Heightened Def Con from 0.0498751 to 0.0498751
Heightened Def Con from 0.0500719 to 0.0500719
Heightened Def Con from 0.0501702 to 0.0501702
Heightened Def Con from 0.0502027 to 0.0502028
Heightened Def Con from 0.0503013 to 0.0503013
Heightened Def Con from 0.0503341 to 0.0503341
Heightened Def Con from 0.0503668 to 0.0503668
Heightened Def Con from 0.0505307 to 0.0505307
Heightened Def Con from 0.0507273 to 0.0507273
Heightened Def Con from 0.0507928 to 0.0507928
Heightened Def Con from 0.0509239 to 0.0509239
Heightened Def Con from 0.0510877 to 0.0510877
Heightened Def Con from 0.0514154 to 0.0514154
Heightened Def Con from 0.0515137 to 0.0515137
Heightened Def Con from 0.0516445 to 0.0516445
Heightened Def Con from 0.0517101 to 0.0517101
Heightened Def Con from 0.0517756 to 0.0517756
Heightened Def Con from 0.0518741 to 0.0518742
Heightened Def Con from 0.0519722 to 0.0519722
Heightened Def Con from 0.0521036 to 0.0521036
Heightened Def Con from 0.0521363 to 0.0521363
Heightened Def Con from 0.0522016 to 0.0522016
Heightened Def Con from 0.0522671 to 0.0522671
Heightened Def Con from 0.0523327 to 0.0523327
Heightened Def Con from 0.0525293 to 0.0525293
Heightened Def Con from 0.0526604 to 0.0526604
Heightened Def Con from 0.0527259 to 0.0527259
Heightened Def Con from 0.0527914 to 0.0527914
Heightened Def Con from 0.0528244 to 0.0528244
Heightened Def Con from 0.0528572 to 0.0528572
Heightened Def Con from 0.0529227 to 0.0529227
Heightened Def Con from 0.0530538 to 0.0530538
Heightened Def Con from 0.0530866 to 0.0530866
Heightened Def Con from 0.0531521 to 0.0531521
Heightened Def Con from 0.0531849 to 0.0531849
Heightened Def Con from 0.0534798 to 0.0534798
Heightened Def Con from 0.0535126 to 0.0535126
Heightened Def Con from 0.0535453 to 0.0535453
Heightened Def Con from 0.0537092 to 0.0537092
Heightened Def Con from 0.0539711 to 0.0539711
Heightened Def Con from 0.0542004 to 0.0542005
Heightened Def Con from 0.0542662 to 0.0542662
Heightened Def Con from 0.0543643 to 0.0543643
Heightened Def Con from 0.0543973 to 0.0543973
Heightened Def Con from 0.0544628 to 0.0544628
Heightened Def Con from 0.0544954 to 0.0544954
Heightened Def Con from 0.0545937 to 0.0545937
Heightened Def Con from 0.0546267 to 0.0546267
Heightened Def Con from 0.054692 to 0.054692
Heightened Def Con from 0.054725 to 0.054725
Heightened Def Con from 0.0548233 to 0.0548233
Heightened Def Con from 0.054856 to 0.054856
Heightened Def Con from 0.0549216 to 0.0549216
Heightened Def Con from 0.0549871 to 0.0549871
Heightened Def Con from 0.0550199 to 0.0550199
Heightened Def Con from 0.0550527 to 0.0550527
Heightened Def Con from 0.0550854 to 0.0550854
Heightened Def Con from 0.055151 to 0.055151
Heightened Def Con from 0.0551837 to 0.0551837
Heightened Def Con from 0.0552818 to 0.0552818
Heightened Def Con from 0.0556422 to 0.0556422
Heightened Def Con from 0.0558063 to 0.0558063
Heightened Def Con from 0.0558391 to 0.0558391
Heightened Def Con from 0.0559046 to 0.0559046
Heightened Def Con from 0.0560357 to 0.0560357
Heightened Def Con from 0.0561012 to 0.0561012
Heightened Def Con from 0.0562651 to 0.0562651
Heightened Def Con from 0.0563304 to 0.0563304
Heightened Def Con from 0.0563631 to 0.0563631
Heightened Def Con from 0.0563961 to 0.0563961
Heightened Def Con from 0.0564289 to 0.0564289
Heightened Def Con from 0.0564614 to 0.0564614
Heightened Def Con from 0.056527 to 0.056527
Heightened Def Con from 0.0565927 to 0.0565927
Heightened Def Con from 0.0566255 to 0.0566255
Heightened Def Con from 0.0566911 to 0.0566911
Heightened Def Con from 0.0567566 to 0.0567566
Heightened Def Con from 0.0567566 to 0.0567566
Heightened Def Con from 0.0568877 to 0.0568877
Heightened Def Con from 0.0569532 to 0.0569532
Heightened Def Con from 0.056986 to 0.056986
Heightened Def Con from 0.0570513 to 0.0570513
Heightened Def Con from 0.0571498 to 0.0571498
Heightened Def Con from 0.0571826 to 0.0571826
Heightened Def Con from 0.0572153 to 0.0572153
Heightened Def Con from 0.0572479 to 0.0572479
Heightened Def Con from 0.0573789 to 0.0573789
Heightened Def Con from 0.0575103 to 0.0575103
Heightened Def Con from 0.057543 to 0.057543
Heightened Def Con from 0.0575758 to 0.0575758
Heightened Def Con from 0.0578049 to 0.0578049
Heightened Def Con from 0.0581656 to 0.0581656
Heightened Def Con from 0.0582639 to 0.0582639
Heightened Def Con from 0.0583947 to 0.0583947
Heightened Def Con from 0.0584933 to 0.0584933
Heightened Def Con from 0.0586897 to 0.0586897
Heightened Def Con from 0.0587227 to 0.0587227
Heightened Def Con from 0.0587554 to 0.0587554
Heightened Def Con from 0.0587882 to 0.0587882
Heightened Def Con from 0.0588538 to 0.0588538
Heightened Def Con from 0.0589193 to 0.0589193
Heightened Def Con from 0.0590829 to 0.0590829
Heightened Def Con from 0.0593453 to 0.0593453
Heightened Def Con from 0.0593778 to 0.0593778
Heightened Def Con from 0.0594436 to 0.0594436
Heightened Def Con from 0.0594763 to 0.0594763
Heightened Def Con from 0.0596074 to 0.0596074
Heightened Def Con from 0.0596402 to 0.0596402
Heightened Def Con from 0.0597057 to 0.0597057
Heightened Def Con from 0.0597385 to 0.0597385
Heightened Def Con from 0.0597712 to 0.0597712
Heightened Def Con from 0.0599676 to 0.0599676
Heightened Def Con from 0.0600004 to 0.0600004
Heightened Def Con from 0.0600989 to 0.0600989
Heightened Def Con from 0.0601317 to 0.0601317
Heightened Def Con from 0.0601972 to 0.0601972
Heightened Def Con from 0.06023 to 0.06023
Heightened Def Con from 0.0603938 to 0.0603939
Heightened Def Con from 0.0604594 to 0.0604594
Heightened Def Con from 0.0604921 to 0.0604921
Heightened Def Con from 0.060656 to 0.060656
Heightened Def Con from 0.0606888 to 0.0606888
Heightened Def Con from 0.0607215 to 0.0607215
Heightened Def Con from 0.0607871 to 0.0607871
Heightened Def Con from 0.0608854 to 0.0608854
Heightened Def Con from 0.0610162 to 0.0610162
Heightened Def Con from 0.0610817 to 0.0610817
Heightened Def Con from 0.0613769 to 0.0613769
Heightened Def Con from 0.0614096 to 0.0614096
Heightened Def Con from 0.0617046 to 0.0617046
Heightened Def Con from 0.0617373 to 0.0617373
Heightened Def Con from 0.0617701 to 0.0617701
Heightened Def Con from 0.0619339 to 0.0619339
Heightened Def Con from 0.0619667 to 0.0619667
Heightened Def Con from 0.0620978 to 0.0620978
Heightened Def Con from 0.0621305 to 0.0621305
Heightened Def Con from 0.0621958 to 0.0621958
Heightened Def Con from 0.0623924 to 0.0623924
Heightened Def Con from 0.0624907 to 0.0624907
Heightened Def Con from 0.0625238 to 0.0625238
Heightened Def Con from 0.0625563 to 0.0625563
Heightened Def Con from 0.0626548 to 0.0626548
Heightened Def Con from 0.0628842 to 0.0628842
Heightened Def Con from 0.062917 to 0.062917
Heightened Def Con from 0.0629497 to 0.0629497
Heightened Def Con from 0.0630481 to 0.0630481
Heightened Def Con from 0.0631464 to 0.0631464
Heightened Def Con from 0.0632447 to 0.0632447
Heightened Def Con from 0.0632774 to 0.0632774
Heightened Def Con from 0.0633102 to 0.0633102
Heightened Def Con from 0.0634413 to 0.0634413
Heightened Def Con from 0.0635396 to 0.0635396
Heightened Def Con from 0.0636051 to 0.0636051
Heightened Def Con from 0.0636379 to 0.0636379
Heightened Def Con from 0.0637034 to 0.0637034
Heightened Def Con from 0.0638017 to 0.0638017
Heightened Def Con from 0.0638342 to 0.0638342
Heightened Def Con from 0.0638672 to 0.0638672
Heightened Def Con from 0.0639656 to 0.0639656
Heightened Def Con from 0.0640964 to 0.0640964
Heightened Def Con from 0.0641294 to 0.0641294
Heightened Def Con from 0.0641947 to 0.0641947
Heightened Def Con from 0.0644243 to 0.0644243
Heightened Def Con from 0.0646865 to 0.0646865
Heightened Def Con from 0.0647845 to 0.0647845
Heightened Def Con from 0.0650467 to 0.0650467
Heightened Def Con from 0.0650797 to 0.0650797
Heightened Def Con from 0.0651124 to 0.0651124
Heightened Def Con from 0.065178 to 0.065178
Heightened Def Con from 0.0652107 to 0.0652107
Heightened Def Con from 0.0653418 to 0.0653418
Heightened Def Con from 0.0653746 to 0.0653746
Heightened Def Con from 0.0655384 to 0.0655384
Heightened Def Con from 0.0655712 to 0.0655712
Heightened Def Con from 0.065604 to 0.065604
Heightened Def Con from 0.065735 to 0.065735
Heightened Def Con from 0.0658333 to 0.0658333
Heightened Def Con from 0.0660299 to 0.0660299
Heightened Def Con from 0.0660627 to 0.0660627
Heightened Def Con from 0.0660955 to 0.0660955
Heightened Def Con from 0.0661608 to 0.0661608
Heightened Def Con from 0.0661938 to 0.0661938
Heightened Def Con from 0.0662593 to 0.0662593
Heightened Def Con from 0.0663248 to 0.0663248
Heightened Def Con from 0.0663576 to 0.0663576
Heightened Def Con from 0.0664559 to 0.0664559
Heightened Def Con from 0.0665542 to 0.0665542
Heightened Def Con from 0.0666525 to 0.0666525
Heightened Def Con from 0.0666853 to 0.0666853
Heightened Def Con from 0.0667178 to 0.0667178
Heightened Def Con from 0.0667508 to 0.0667508
Heightened Def Con from 0.0668164 to 0.0668164
Heightened Def Con from 0.0669147 to 0.0669147
Heightened Def Con from 0.067013 to 0.067013
Heightened Def Con from 0.0670783 to 0.0670783
Heightened Def Con from 0.0671113 to 0.0671113
Heightened Def Con from 0.0671441 to 0.0671441
Heightened Def Con from 0.0672424 to 0.0672424
Heightened Def Con from 0.0676356 to 0.0676356
Heightened Def Con from 0.0676683 to 0.0676683
Heightened Def Con from 0.0677336 to 0.0677336
Heightened Def Con from 0.0677666 to 0.0677666
Heightened Def Con from 0.0681268 to 0.0681268
Heightened Def Con from 0.0682254 to 0.0682254
Heightened Def Con from 0.0682582 to 0.0682582
Heightened Def Con from 0.0682909 to 0.0682909
Heightened Def Con from 0.0683235 to 0.0683235
Heightened Def Con from 0.0684548 to 0.0684548
Heightened Def Con from 0.0685203 to 0.0685203
Heightened Def Con from 0.0685531 to 0.0685531
Heightened Def Con from 0.0686186 to 0.0686186
Heightened Def Con from 0.0686514 to 0.0686514
Heightened Def Con from 0.0687169 to 0.0687169
Heightened Def Con from 0.068848 to 0.068848
Heightened Def Con from 0.0688808 to 0.0688808
Heightened Def Con from 0.0690118 to 0.0690118
Heightened Def Con from 0.0693065 to 0.0693065
Heightened Def Con from 0.0693723 to 0.0693723
Heightened Def Con from 0.0694706 to 0.0694706
Heightened Def Con from 0.0695033 to 0.0695033
Heightened Def Con from 0.0697652 to 0.0697652
Heightened Def Con from 0.0698966 to 0.0698966
Heightened Def Con from 0.0699293 to 0.0699293
Heightened Def Con from 0.0699621 to 0.0699621
Heightened Def Con from 0.0699949 to 0.0699949
Heightened Def Con from 0.0700604 to 0.0700604
Heightened Def Con from 0.0700932 to 0.0700932
Heightened Def Con from 0.0702242 to 0.0702242
Heightened Def Con from 0.070257 to 0.070257
Heightened Def Con from 0.0703223 to 0.0703223
Heightened Def Con from 0.0705192 to 0.0705192
Heightened Def Con from 0.0705847 to 0.0705847
Heightened Def Con from 0.0706175 to 0.0706175
Heightened Def Con from 0.0706502 to 0.0706502
Heightened Def Con from 0.0707485 to 0.0707485
Heightened Def Con from 0.0707811 to 0.0707811
Heightened Def Con from 0.0708796 to 0.0708796
Heightened Def Con from 0.0709452 to 0.0709452
Heightened Def Con from 0.0710104 to 0.0710104
Heightened Def Con from 0.0710434 to 0.0710434
Heightened Def Con from 0.07124 to 0.07124
Heightened Def Con from 0.0712728 to 0.0712728
Heightened Def Con from 0.0713056 to 0.0713056
Heightened Def Con from 0.0714037 to 0.0714037
Heightened Def Con from 0.0715022 to 0.0715022
Heightened Def Con from 0.0717316 to 0.0717316
Heightened Def Con from 0.0717643 to 0.0717643
Heightened Def Con from 0.0718299 to 0.0718299
Heightened Def Con from 0.0718954 to 0.0718954
Heightened Def Con from 0.0719282 to 0.0719282
Heightened Def Con from 0.0719609 to 0.0719609
Heightened Def Con from 0.0719937 to 0.0719937
Heightened Def Con from 0.072092 to 0.072092
Heightened Def Con from 0.0722228 to 0.0722228
Heightened Def Con from 0.0722559 to 0.0722559
Heightened Def Con from 0.0723214 to 0.0723214
Heightened Def Con from 0.0724522 to 0.0724522
Heightened Def Con from 0.0726818 to 0.0726818
Heightened Def Con from 0.0727474 to 0.0727474
Heightened Def Con from 0.0728127 to 0.0728127
Heightened Def Con from 0.0728457 to 0.0728457
Heightened Def Con from 0.0728784 to 0.0728784
Heightened Def Con from 0.0729765 to 0.0729765
Heightened Def Con from 0.073042 to 0.073042
Heightened Def Con from 0.0731078 to 0.0731078
Heightened Def Con from 0.0731734 to 0.0731734
Heightened Def Con from 0.0732061 to 0.0732061
Heightened Def Con from 0.0732717 to 0.0732717
Heightened Def Con from 0.0733372 to 0.0733372
Heightened Def Con from 0.07337 to 0.07337
Heightened Def Con from 0.0735663 to 0.0735663
Heightened Def Con from 0.0735993 to 0.0735993
Heightened Def Con from 0.0736646 to 0.0736646
Heightened Def Con from 0.0737304 to 0.0737304
Heightened Def Con from 0.073894 to 0.073894
Heightened Def Con from 0.0741236 to 0.0741236
Heightened Def Con from 0.0742872 to 0.0742872
Heightened Def Con from 0.0746807 to 0.0746807
Heightened Def Con from 0.0747135 to 0.0747135
Heightened Def Con from 0.0747462 to 0.0747462
Heightened Def Con from 0.0748445 to 0.0748445
Heightened Def Con from 0.0749756 to 0.0749756
Heightened Def Con from 0.0750739 to 0.0750739
Heightened Def Con from 0.075205 to 0.075205
Heightened Def Con from 0.0752377 to 0.0752377
Heightened Def Con from 0.0754013 to 0.0754013
Heightened Def Con from 0.0754671 to 0.0754671
Heightened Def Con from 0.0754999 to 0.0754999
Heightened Def Con from 0.0755982 to 0.0755982
Heightened Def Con from 0.0759586 to 0.0759586
Heightened Def Con from 0.0759914 to 0.0759914
Heightened Def Con from 0.0760897 to 0.0760897
Heightened Def Con from 0.0761225 to 0.0761225
Heightened Def Con from 0.0762536 to 0.0762536
Heightened Def Con from 0.0764174 to 0.0764174
Heightened Def Con from 0.0765485 to 0.0765485
Heightened Def Con from 0.0766796 to 0.0766796
Heightened Def Con from 0.0767448 to 0.0767448
Heightened Def Con from 0.0768104 to 0.0768104
Heightened Def Con from 0.0768762 to 0.0768762
Heightened Def Con from 0.0769414 to 0.0769414
Heightened Def Con from 0.0769744 to 0.0769744
Heightened Def Con from 0.0771055 to 0.0771055
Heightened Def Con from 0.0771381 to 0.0771381
Heightened Def Con from 0.0771711 to 0.0771711
Heightened Def Con from 0.0772366 to 0.0772366
Heightened Def Con from 0.0772694 to 0.0772694
Heightened Def Con from 0.0773349 to 0.0773349
Heightened Def Con from 0.0774004 to 0.0774004
Heightened Def Con from 0.077466 to 0.077466
Heightened Def Con from 0.0775643 to 0.0775643
Heightened Def Con from 0.077597 to 0.077597
Heightened Def Con from 0.0776298 to 0.0776298
Heightened Def Con from 0.0776626 to 0.0776626
Heightened Def Con from 0.07799 to 0.07799
Heightened Def Con from 0.078023 to 0.078023
Heightened Def Con from 0.0780558 to 0.0780558
Heightened Def Con from 0.0780886 to 0.0780886
Heightened Def Con from 0.0781541 to 0.0781541
Heightened Def Con from 0.0781869 to 0.0781869
Heightened Def Con from 0.0782524 to 0.0782524
Heightened Def Con from 0.0783179 to 0.0783179
Heightened Def Con from 0.0783507 to 0.0783507
Heightened Def Con from 0.0784488 to 0.0784488
Heightened Def Con from 0.0785473 to 0.0785473
Heightened Def Con from 0.0785801 to 0.0785801
Heightened Def Con from 0.0786784 to 0.0786784
Heightened Def Con from 0.0788095 to 0.0788095
Heightened Def Con from 0.0789078 to 0.0789078
Heightened Def Con from 0.0789733 to 0.0789733
Heightened Def Con from 0.0790386 to 0.0790386
Heightened Def Con from 0.0790716 to 0.0790716
Heightened Def Con from 0.0791371 to 0.0791371
Heightened Def Con from 0.0793338 to 0.0793338
Heightened Def Con from 0.0793665 to 0.0793665
Heightened Def Con from 0.079432 to 0.0794321
Heightened Def Con from 0.0797267 to 0.0797267
Heightened Def Con from 0.0797923 to 0.0797923
Heightened Def Con from 0.0798906 to 0.0798906
Heightened Def Con from 0.0799236 to 0.0799236
Heightened Def Con from 0.0799891 to 0.0799891
Heightened Def Con from 0.0800544 to 0.0800544
Heightened Def Con from 0.0803168 to 0.0803168
Heightened Def Con from 0.0804806 to 0.0804806
Heightened Def Con from 0.08071 to 0.08071
Heightened Def Con from 0.0808411 to 0.0808411
Heightened Def Con from 0.0811688 to 0.0811688
Heightened Def Con from 0.0813326 to 0.0813326
Heightened Def Con from 0.0813654 to 0.0813654
Heightened Def Con from 0.0814309 to 0.0814309
Heightened Def Con from 0.0817586 to 0.0817586
Heightened Def Con from 0.0818897 to 0.0818897
Heightened Def Con from 0.0819224 to 0.0819224
Heightened Def Con from 0.0819877 to 0.0819877
Heightened Def Con from 0.0820207 to 0.0820207
Heightened Def Con from 0.0820535 to 0.0820535
Heightened Def Con from 0.0821846 to 0.0821846
Heightened Def Con from 0.0821846 to 0.0821846
Heightened Def Con from 0.0821846 to 0.0821846
Heightened Def Con from 0.0822498 to 0.0822499
Heightened Def Con from 0.0822829 to 0.0822829
Heightened Def Con from 0.0823156 to 0.0823156
Heightened Def Con from 0.0823484 to 0.0823484
Heightened Def Con from 0.0824795 to 0.0824795
Heightened Def Con from 0.0825123 to 0.0825123
Heightened Def Con from 0.082545 to 0.082545
Heightened Def Con from 0.0826103 to 0.0826103
Heightened Def Con from 0.0826433 to 0.0826433
Heightened Def Con from 0.0826761 to 0.0826761
Heightened Def Con from 0.0827088 to 0.0827088
Heightened Def Con from 0.0828399 to 0.0828399
Heightened Def Con from 0.0828727 to 0.0828727
Heightened Def Con from 0.082971 to 0.082971
Heightened Def Con from 0.0831018 to 0.0831018
Heightened Def Con from 0.0831348 to 0.0831348
Heightened Def Con from 0.0831676 to 0.0831676
Heightened Def Con from 0.0832004 to 0.0832004
Heightened Def Con from 0.0832659 to 0.0832659
Heightened Def Con from 0.0832987 to 0.0832987
Heightened Def Con from 0.0834623 to 0.0834623
Heightened Def Con from 0.083528 to 0.083528
Heightened Def Con from 0.0835608 to 0.0835608
Heightened Def Con from 0.08379 to 0.08379
Heightened Def Con from 0.0838557 to 0.0838557
Heightened Def Con from 0.0838885 to 0.0838885
Heightened Def Con from 0.083921 to 0.083921
Heightened Def Con from 0.0839868 to 0.0839868
Heightened Def Con from 0.0841506 to 0.0841506
Heightened Def Con from 0.0841834 to 0.0841834
Heightened Def Con from 0.0842162 to 0.0842162
Heightened Def Con from 0.0843145 to 0.0843145
Heightened Def Con from 0.0843472 to 0.0843472
Heightened Def Con from 0.0844453 to 0.0844453
Heightened Def Con from 0.0844783 to 0.0844783
Heightened Def Con from 0.0845766 to 0.0845766
Heightened Def Con from 0.0847732 to 0.0847732
Heightened Def Con from 0.084806 to 0.084806
Heightened Def Con from 0.0848388 to 0.0848388
Heightened Def Con from 0.0848715 to 0.0848715
Heightened Def Con from 0.0849698 to 0.0849699
Heightened Def Con from 0.0850026 to 0.0850026
Heightened Def Con from 0.0850354 to 0.0850354
Heightened Def Con from 0.0852975 to 0.0852975
Heightened Def Con from 0.0853303 to 0.0853303
Heightened Def Con from 0.0854286 to 0.0854286
Heightened Def Con from 0.0854614 to 0.0854614
Heightened Def Con from 0.085658 to 0.085658
Heightened Def Con from 0.0857235 to 0.0857235
Heightened Def Con from 0.085756 to 0.085756
Heightened Def Con from 0.085789 to 0.085789
Heightened Def Con from 0.0860184 to 0.0860184
Heightened Def Con from 0.0861167 to 0.0861167
Heightened Def Con from 0.0861823 to 0.0861823
Heightened Def Con from 0.0863789 to 0.0863789
Heightened Def Con from 0.0865097 to 0.0865097
Heightened Def Con from 0.086641 to 0.086641
Heightened Def Con from 0.0868704 to 0.0868704
Heightened Def Con from 0.0869687 to 0.0869687
Heightened Def Con from 0.0870342 to 0.0870342
Heightened Def Con from 0.087165 to 0.087165
Heightened Def Con from 0.0871981 to 0.0871981
Heightened Def Con from 0.0872308 to 0.0872308
Heightened Def Con from 0.0873947 to 0.0873947
Heightened Def Con from 0.0874602 to 0.0874602
Heightened Def Con from 0.0875258 to 0.0875258
Heightened Def Con from 0.0876568 to 0.0876568
Heightened Def Con from 0.0876896 to 0.0876896
Heightened Def Con from 0.0877549 to 0.0877549
Heightened Def Con from 0.0877879 to 0.0877879
Heightened Def Con from 0.08805 to 0.08805
Heightened Def Con from 0.0881156 to 0.0881156
Heightened Def Con from 0.0881811 to 0.0881811
Heightened Def Con from 0.0882466 to 0.0882466
Heightened Def Con from 0.0883122 to 0.0883122
Heightened Def Con from 0.0884433 to 0.0884433
Heightened Def Con from 0.0887382 to 0.0887382
Heightened Def Con from 0.0887709 to 0.0887709
Heightened Def Con from 0.0888037 to 0.0888037
Heightened Def Con from 0.0889348 to 0.0889348
Heightened Def Con from 0.0889675 to 0.0889675
Heightened Def Con from 0.0890001 to 0.0890001
Heightened Def Con from 0.0890658 to 0.0890658
Heightened Def Con from 0.0891967 to 0.0891967
Heightened Def Con from 0.0892297 to 0.0892297
Heightened Def Con from 0.089328 to 0.089328
Heightened Def Con from 0.0893935 to 0.0893935
Heightened Def Con from 0.0896557 to 0.0896557
Heightened Def Con from 0.0896884 to 0.0896884
Heightened Def Con from 0.0899176 to 0.0899176
Heightened Def Con from 0.0900161 to 0.0900161
Heightened Def Con from 0.0900489 to 0.0900489
Heightened Def Con from 0.0901469 to 0.0901469
Heightened Def Con from 0.090311 to 0.090311
Heightened Def Con from 0.0903438 to 0.0903438
Heightened Def Con from 0.0906385 to 0.0906385
Heightened Def Con from 0.0907698 to 0.0907698
Heightened Def Con from 0.0908353 to 0.0908353
Heightened Def Con from 0.0909336 to 0.0909336
Heightened Def Con from 0.091163 to 0.091163
Heightened Def Con from 0.0911958 to 0.0911958
Heightened Def Con from 0.0913268 to 0.0913268
Heightened Def Con from 0.0913596 to 0.0913596
Heightened Def Con from 0.0914251 to 0.0914251
Heightened Def Con from 0.0914579 to 0.0914579
Heightened Def Con from 0.0916217 to 0.0916217
Heightened Def Con from 0.0918839 to 0.0918839
Heightened Def Con from 0.0919494 to 0.0919494
Heightened Def Con from 0.092015 to 0.092015
Heightened Def Con from 0.0921133 to 0.0921133
Heightened Def Con from 0.092146 to 0.092146
Heightened Def Con from 0.0921788 to 0.0921788
Heightened Def Con from 0.0923426 to 0.0923427
Heightened Def Con from 0.0923754 to 0.0923754
Heightened Def Con from 0.092441 to 0.092441
Heightened Def Con from 0.0925392 to 0.0925392
Heightened Def Con from 0.0926045 to 0.0926045
Heightened Def Con from 0.0926703 to 0.0926703
Heightened Def Con from 0.0927031 to 0.0927031
Heightened Def Con from 0.0928669 to 0.0928669
Heightened Def Con from 0.0928994 to 0.0928995
Heightened Def Con from 0.0929325 to 0.0929325
Heightened Def Con from 0.0930963 to 0.0930963
Heightened Def Con from 0.0931619 to 0.0931619
Heightened Def Con from 0.0932274 to 0.0932274
Heightened Def Con from 0.0933254 to 0.0933254
Heightened Def Con from 0.0933584 to 0.0933584
Heightened Def Con from 0.093391 to 0.093391
Heightened Def Con from 0.093424 to 0.093424
Heightened Def Con from 0.0935223 to 0.0935223
Heightened Def Con from 0.0935551 to 0.0935551
Heightened Def Con from 0.0935878 to 0.0935878
Heightened Def Con from 0.0937844 to 0.0937844
Heightened Def Con from 0.0938827 to 0.0938828
Heightened Def Con from 0.0939811 to 0.0939811
Heightened Def Con from 0.0940466 to 0.0940466
Heightened Def Con from 0.0941121 to 0.0941121
Heightened Def Con from 0.094407 to 0.094407
Heightened Def Con from 0.0946034 to 0.0946034
Heightened Def Con from 0.0947019 to 0.0947019
Heightened Def Con from 0.0947347 to 0.0947347
Heightened Def Con from 0.0948328 to 0.0948328
Heightened Def Con from 0.0948658 to 0.0948658
Heightened Def Con from 0.0948986 to 0.0948986
Heightened Def Con from 0.0949313 to 0.0949313
Heightened Def Con from 0.0949966 to 0.0949966
Heightened Def Con from 0.0951279 to 0.0951279
Heightened Def Con from 0.0952262 to 0.0952262
Heightened Def Con from 0.095259 to 0.095259
Heightened Def Con from 0.0952918 to 0.0952918
Heightened Def Con from 0.0953245 to 0.0953245
Heightened Def Con from 0.0953573 to 0.0953573
Heightened Def Con from 0.0953901 to 0.0953901
Heightened Def Con from 0.0955537 to 0.0955537
Heightened Def Con from 0.0955867 to 0.0955867
Heightened Def Con from 0.0956194 to 0.0956194
Heightened Def Con from 0.0957175 to 0.0957175
Heightened Def Con from 0.0957833 to 0.0957833
Heightened Def Con from 0.095816 to 0.095816
Heightened Def Con from 0.0958488 to 0.0958488
Heightened Def Con from 0.0960127 to 0.0960127
Heightened Def Con from 0.0960782 to 0.0960782
Heightened Def Con from 0.096111 to 0.096111
Heightened Def Con from 0.0963073 to 0.0963073
Heightened Def Con from 0.0964386 to 0.0964386
Heightened Def Con from 0.0965697 to 0.0965697
Heightened Def Con from 0.0967008 to 0.0967008
Heightened Def Con from 0.0967336 to 0.0967336
Heightened Def Con from 0.0967663 to 0.0967663
Heightened Def Con from 0.0968319 to 0.0968319
Heightened Def Con from 0.0968646 to 0.0968646
Heightened Def Con from 0.0968974 to 0.0968974
Heightened Def Con from 0.0969302 to 0.0969302
Heightened Def Con from 0.0970285 to 0.0970285
Heightened Def Con from 0.0970938 to 0.0970938
Heightened Def Con from 0.0972904 to 0.0972904
Heightened Def Con from 0.0974872 to 0.0974872
Heightened Def Con from 0.09752 to 0.09752
Heightened Def Con from 0.0975525 to 0.0975525
Heightened Def Con from 0.0977494 to 0.0977494
Heightened Def Con from 0.0977821 to 0.0977821
Heightened Def Con from 0.0980115 to 0.0980115
Heightened Def Con from 0.0981098 to 0.0981098
Heightened Def Con from 0.0981426 to 0.0981426
Heightened Def Con from 0.0982737 to 0.0982737
Heightened Def Con from 0.09847 to 0.09847
Heightened Def Con from 0.0985358 to 0.0985358
Heightened Def Con from 0.0986666 to 0.0986666
Heightened Def Con from 0.0987324 to 0.0987324
Heightened Def Con from 0.0988307 to 0.0988307
Heightened Def Con from 0.0988963 to 0.0988963
Heightened Def Con from 0.098929 to 0.098929
Heightened Def Con from 0.0990598 to 0.0990598
Heightened Def Con from 0.0992567 to 0.0992567
Heightened Def Con from 0.0992892 to 0.0992892
Heightened Def Con from 0.0993222 to 0.0993222
Heightened Def Con from 0.0993877 to 0.0993878
Heightened Def Con from 0.0994205 to 0.0994205
Heightened Def Con from 0.0994533 to 0.0994533
Heightened Def Con from 0.0994861 to 0.0994861
Heightened Def Con from 0.0995516 to 0.0995516
Heightened Def Con from 0.0996497 to 0.0996497
Heightened Def Con from 0.0996824 to 0.0996824
Heightened Def Con from 0.099781 to 0.099781
Heightened Def Con from 0.0998137 to 0.0998137
Heightened Def Con from 0.0998793 to 0.0998793
Heightened Def Con from 0.10001 to 0.10001
Heightened Def Con from 0.100043 to 0.100043
Heightened Def Con from 0.100207 to 0.100207
Heightened Def Con from 0.100273 to 0.100273
Heightened Def Con from 0.100338 to 0.100338
Heightened Def Con from 0.100371 to 0.100371
Heightened Def Con from 0.100404 to 0.100404
Heightened Def Con from 0.100469 to 0.100469
Heightened Def Con from 0.100567 to 0.100567
Heightened Def Con from 0.1006 to 0.1006
Heightened Def Con from 0.100633 to 0.100633
Heightened Def Con from 0.100666 to 0.100666
Heightened Def Con from 0.100797 to 0.100797
Heightened Def Con from 0.100862 to 0.100862
Heightened Def Con from 0.101092 to 0.101092
Heightened Def Con from 0.101124 to 0.101124
Heightened Def Con from 0.101223 to 0.101223
Heightened Def Con from 0.101288 to 0.101288
Heightened Def Con from 0.101419 to 0.101419
Heightened Def Con from 0.101518 to 0.101518
Heightened Def Con from 0.101583 to 0.101583
Heightened Def Con from 0.101714 to 0.101714
Heightened Def Con from 0.101747 to 0.101747
Heightened Def Con from 0.10178 to 0.10178
Heightened Def Con from 0.101813 to 0.101813
Heightened Def Con from 0.101976 to 0.101976
Heightened Def Con from 0.102042 to 0.102042
Heightened Def Con from 0.102075 to 0.102075
Heightened Def Con from 0.102238 to 0.102238
Heightened Def Con from 0.102271 to 0.102271
Heightened Def Con from 0.102304 to 0.102304
Heightened Def Con from 0.102337 to 0.102337
Heightened Def Con from 0.10237 to 0.10237
Heightened Def Con from 0.102796 to 0.102796
Heightened Def Con from 0.102828 to 0.102828
Heightened Def Con from 0.102894 to 0.102894
Heightened Def Con from 0.102992 to 0.102992
Heightened Def Con from 0.103025 to 0.103025
Heightened Def Con from 0.103058 to 0.103058
Heightened Def Con from 0.103156 to 0.103156
Heightened Def Con from 0.103254 to 0.103254
Heightened Def Con from 0.10332 to 0.10332
Heightened Def Con from 0.103353 to 0.103353
Heightened Def Con from 0.103484 to 0.103484
Heightened Def Con from 0.103517 to 0.103517
Heightened Def Con from 0.103549 to 0.103549
Heightened Def Con from 0.103648 to 0.103648
Heightened Def Con from 0.10368 to 0.10368
Heightened Def Con from 0.103713 to 0.103713
Heightened Def Con from 0.103811 to 0.103811
Heightened Def Con from 0.103844 to 0.103844
Heightened Def Con from 0.10391 to 0.10391
Heightened Def Con from 0.103943 to 0.103943
Heightened Def Con from 0.104008 to 0.104008
Heightened Def Con from 0.104041 to 0.104041
Heightened Def Con from 0.104074 to 0.104074
Heightened Def Con from 0.104106 to 0.104106
Heightened Def Con from 0.104139 to 0.104139
Heightened Def Con from 0.104237 to 0.104237
Heightened Def Con from 0.10427 to 0.10427
Heightened Def Con from 0.104303 to 0.104303
Heightened Def Con from 0.104434 to 0.104434
Heightened Def Con from 0.104598 to 0.104598
Heightened Def Con from 0.104729 to 0.104729
Heightened Def Con from 0.104794 to 0.104794
Heightened Def Con from 0.104827 to 0.104827
Heightened Def Con from 0.104893 to 0.104893
Heightened Def Con from 0.104926 to 0.104926
Heightened Def Con from 0.105057 to 0.105057
Heightened Def Con from 0.105122 to 0.105122
Heightened Def Con from 0.105188 to 0.105188
Heightened Def Con from 0.10522 to 0.10522
Heightened Def Con from 0.105384 to 0.105384
Heightened Def Con from 0.105417 to 0.105417
Heightened Def Con from 0.105515 to 0.105515
Heightened Def Con from 0.105548 to 0.105548
Heightened Def Con from 0.105581 to 0.105581
Heightened Def Con from 0.105614 to 0.105614
Heightened Def Con from 0.105646 to 0.105646
Heightened Def Con from 0.105679 to 0.105679
Heightened Def Con from 0.105745 to 0.105745
Heightened Def Con from 0.105876 to 0.105876
Heightened Def Con from 0.105941 to 0.105941
Heightened Def Con from 0.10604 to 0.10604
Heightened Def Con from 0.106138 to 0.106138
Heightened Def Con from 0.10617 to 0.10617
Heightened Def Con from 0.106236 to 0.106236
Heightened Def Con from 0.106302 to 0.106302
Heightened Def Con from 0.106335 to 0.106335
Heightened Def Con from 0.106367 to 0.106367
Heightened Def Con from 0.106564 to 0.106564
Heightened Def Con from 0.106662 to 0.106662
Heightened Def Con from 0.106695 to 0.106695
Heightened Def Con from 0.106859 to 0.106859
Heightened Def Con from 0.106924 to 0.106924
Heightened Def Con from 0.107055 to 0.107055
Heightened Def Con from 0.107219 to 0.107219
Heightened Def Con from 0.10735 to 0.10735
Heightened Def Con from 0.107383 to 0.107383
Heightened Def Con from 0.107416 to 0.107416
Heightened Def Con from 0.107449 to 0.107449
Heightened Def Con from 0.107481 to 0.107481
Heightened Def Con from 0.10758 to 0.10758
Heightened Def Con from 0.107613 to 0.107613
Heightened Def Con from 0.107645 to 0.107645
Heightened Def Con from 0.10794 to 0.10794
Heightened Def Con from 0.107973 to 0.107973
Heightened Def Con from 0.108006 to 0.108006
Heightened Def Con from 0.108268 to 0.108268
Heightened Def Con from 0.108333 to 0.108333
Heightened Def Con from 0.108366 to 0.108366
Heightened Def Con from 0.108727 to 0.108727
Heightened Def Con from 0.108825 to 0.108825
Heightened Def Con from 0.10889 to 0.10889
Heightened Def Con from 0.108989 to 0.108989
Heightened Def Con from 0.109054 to 0.109054
Heightened Def Con from 0.109349 to 0.109349
Heightened Def Con from 0.10948 to 0.10948
Heightened Def Con from 0.109513 to 0.109513
Heightened Def Con from 0.109546 to 0.109546
Heightened Def Con from 0.109742 to 0.109742
Heightened Def Con from 0.109841 to 0.109841
Heightened Def Con from 0.109874 to 0.109874
Heightened Def Con from 0.109939 to 0.109939
Heightened Def Con from 0.109972 to 0.109972
Heightened Def Con from 0.110168 to 0.110168
Heightened Def Con from 0.110266 to 0.110266
Heightened Def Con from 0.110332 to 0.110332
Heightened Def Con from 0.110463 to 0.110463
Heightened Def Con from 0.110496 to 0.110496
Heightened Def Con from 0.110529 to 0.110529
Heightened Def Con from 0.110562 to 0.110562
Heightened Def Con from 0.110627 to 0.110627
Heightened Def Con from 0.110693 to 0.110693
Heightened Def Con from 0.110758 to 0.110758
Heightened Def Con from 0.110791 to 0.110791
Heightened Def Con from 0.110824 to 0.110824
Heightened Def Con from 0.110857 to 0.110857
Heightened Def Con from 0.110889 to 0.110889
Heightened Def Con from 0.110955 to 0.110955
Heightened Def Con from 0.11102 to 0.11102
Heightened Def Con from 0.111086 to 0.111086
Heightened Def Con from 0.111151 to 0.111151
Heightened Def Con from 0.111184 to 0.111184
Heightened Def Con from 0.111217 to 0.111217
Heightened Def Con from 0.111315 to 0.111315
Heightened Def Con from 0.111348 to 0.111348
Heightened Def Con from 0.111381 to 0.111381
Heightened Def Con from 0.111414 to 0.111414
Heightened Def Con from 0.111446 to 0.111446
Heightened Def Con from 0.111479 to 0.111479
Heightened Def Con from 0.111577 to 0.111577
Heightened Def Con from 0.111708 to 0.111708
Heightened Def Con from 0.111774 to 0.111774
Heightened Def Con from 0.111807 to 0.111807
Heightened Def Con from 0.11184 to 0.11184
Heightened Def Con from 0.111872 to 0.111872
Heightened Def Con from 0.111938 to 0.111938
Heightened Def Con from 0.112102 to 0.112102
Heightened Def Con from 0.112298 to 0.112298
[...]
Heightened Def Con from 0.265718 to 0.265718
Heightened Def Con from 0.265751 to 0.265751
Heightened Def Con from 0.265849 to 0.265849
Heightened Def Con from 0.26598 to 0.26598
Heightened Def Con from 0.266046 to 0.266046
Heightened Def Con from 0.26621 to 0.26621
Heightened Def Con from 0.266341 to 0.266341
Heightened Def Con from 0.266373 to 0.266373
Heightened Def Con from 0.266439 to 0.266439
Heightened Def Con from 0.266472 to 0.266472
Heightened Def Con from 0.266505 to 0.266505
Heightened Def Con from 0.266537 to 0.266537
Heightened Def Con from 0.26657 to 0.26657
Heightened Def Con from 0.266603 to 0.266603
Heightened Def Con from 0.266636 to 0.266636
Heightened Def Con from 0.266668 to 0.266668
Heightened Def Con from 0.266734 to 0.266734
Heightened Def Con from 0.266799 to 0.266799
Heightened Def Con from 0.266963 to 0.266963
Heightened Def Con from 0.266996 to 0.266996
Heightened Def Con from 0.267029 to 0.267029
Heightened Def Con from 0.267062 to 0.267062
Heightened Def Con from 0.267094 to 0.267094
Heightened Def Con from 0.267127 to 0.267127
Heightened Def Con from 0.26716 to 0.26716
Heightened Def Con from 0.267193 to 0.267193
Heightened Def Con from 0.267225 to 0.267225
Heightened Def Con from 0.267258 to 0.267258
Heightened Def Con from 0.267324 to 0.267324
Heightened Def Con from 0.267422 to 0.267422
Heightened Def Con from 0.267717 to 0.267717
Heightened Def Con from 0.26775 to 0.26775
Heightened Def Con from 0.267914 to 0.267914
Heightened Def Con from 0.268045 to 0.268045
Heightened Def Con from 0.268077 to 0.268077
Heightened Def Con from 0.26811 to 0.26811
Heightened Def Con from 0.268143 to 0.268143
Heightened Def Con from 0.268176 to 0.268176
Heightened Def Con from 0.268307 to 0.268307
Heightened Def Con from 0.268372 to 0.268372
Heightened Def Con from 0.268438 to 0.268438
Heightened Def Con from 0.268569 to 0.268569
Heightened Def Con from 0.268602 to 0.268602
Heightened Def Con from 0.268733 to 0.268733
Heightened Def Con from 0.268766 to 0.268766
Heightened Def Con from 0.268798 to 0.268798
Heightened Def Con from 0.268831 to 0.268831
Heightened Def Con from 0.268864 to 0.268864
Heightened Def Con from 0.268962 to 0.268962
Heightened Def Con from 0.26906 to 0.26906
Heightened Def Con from 0.269093 to 0.269093
Heightened Def Con from 0.269126 to 0.269126
Heightened Def Con from 0.26929 to 0.26929
Heightened Def Con from 0.269323 to 0.269323
Heightened Def Con from 0.269355 to 0.269355
Heightened Def Con from 0.269519 to 0.269519
Heightened Def Con from 0.269552 to 0.269552
Heightened Def Con from 0.269716 to 0.269716
Heightened Def Con from 0.269749 to 0.269749
Heightened Def Con from 0.270043 to 0.270043
Heightened Def Con from 0.270109 to 0.270109
Heightened Def Con from 0.270142 to 0.270142
Heightened Def Con from 0.270338 to 0.270338
Heightened Def Con from 0.270404 to 0.270404
Heightened Def Con from 0.270601 to 0.270601
Heightened Def Con from 0.270633 to 0.270633
Heightened Def Con from 0.270666 to 0.270666
Heightened Def Con from 0.270764 to 0.270764
Heightened Def Con from 0.270797 to 0.270797
Heightened Def Con from 0.270863 to 0.270863
Heightened Def Con from 0.271026 to 0.271026
Heightened Def Con from 0.271125 to 0.271125
Heightened Def Con from 0.271158 to 0.271158
Heightened Def Con from 0.271256 to 0.271256
Heightened Def Con from 0.271321 to 0.271321
Heightened Def Con from 0.271354 to 0.271354
Heightened Def Con from 0.271387 to 0.271387
Heightened Def Con from 0.27142 to 0.27142
Heightened Def Con from 0.271453 to 0.271453
Heightened Def Con from 0.271485 to 0.271485
Heightened Def Con from 0.271518 to 0.271518
Heightened Def Con from 0.271584 to 0.271584
Heightened Def Con from 0.271747 to 0.271747
Heightened Def Con from 0.27178 to 0.27178
Heightened Def Con from 0.271813 to 0.271813
Heightened Def Con from 0.272009 to 0.272009
Heightened Def Con from 0.272042 to 0.272042
Heightened Def Con from 0.272075 to 0.272075
Heightened Def Con from 0.272108 to 0.272108
Heightened Def Con from 0.272173 to 0.272173
Heightened Def Con from 0.272468 to 0.272468
Heightened Def Con from 0.272501 to 0.272501
Heightened Def Con from 0.272534 to 0.272534
Heightened Def Con from 0.272599 to 0.272599
Heightened Def Con from 0.272632 to 0.272632
Heightened Def Con from 0.272665 to 0.272665
Heightened Def Con from 0.272698 to 0.272698
Heightened Def Con from 0.27296 to 0.27296
Heightened Def Con from 0.272993 to 0.272993
Heightened Def Con from 0.273058 to 0.273058
Heightened Def Con from 0.273288 to 0.273288
Heightened Def Con from 0.273419 to 0.273419
Heightened Def Con from 0.273517 to 0.273517
Heightened Def Con from 0.273615 to 0.273615
Heightened Def Con from 0.273681 to 0.273681
Heightened Def Con from 0.273714 to 0.273714
Heightened Def Con from 0.273746 to 0.273746
Heightened Def Con from 0.273779 to 0.273779
Heightened Def Con from 0.27391 to 0.27391
Heightened Def Con from 0.273976 to 0.273976
Heightened Def Con from 0.274107 to 0.274107
Heightened Def Con from 0.274238 to 0.274238
Heightened Def Con from 0.274402 to 0.274402
Heightened Def Con from 0.274664 to 0.274664
Heightened Def Con from 0.274697 to 0.274697
Heightened Def Con from 0.274729 to 0.274729
Heightened Def Con from 0.274762 to 0.274762
Heightened Def Con from 0.274795 to 0.274795
Heightened Def Con from 0.274893 to 0.274893
Heightened Def Con from 0.274959 to 0.274959
Heightened Def Con from 0.274991 to 0.274991
Heightened Def Con from 0.275057 to 0.275057
Heightened Def Con from 0.275155 to 0.275155
Heightened Def Con from 0.275286 to 0.275286
Heightened Def Con from 0.275417 to 0.275417
Heightened Def Con from 0.275483 to 0.275483
Heightened Def Con from 0.275516 to 0.275516
Heightened Def Con from 0.275549 to 0.275549
Heightened Def Con from 0.275647 to 0.275647
Heightened Def Con from 0.275712 to 0.275712
Heightened Def Con from 0.275942 to 0.275942
Heightened Def Con from 0.275975 to 0.275975
Heightened Def Con from 0.276007 to 0.276007
Heightened Def Con from 0.27604 to 0.27604
Heightened Def Con from 0.276106 to 0.276106
Heightened Def Con from 0.2764 to 0.2764
Heightened Def Con from 0.276597 to 0.276597
Heightened Def Con from 0.27663 to 0.27663
Heightened Def Con from 0.276695 to 0.276695
Heightened Def Con from 0.276761 to 0.276761
Heightened Def Con from 0.276826 to 0.276826
Heightened Def Con from 0.276892 to 0.276892
Heightened Def Con from 0.276958 to 0.276958
Heightened Def Con from 0.27699 to 0.27699
Heightened Def Con from 0.277089 to 0.277089
Heightened Def Con from 0.277187 to 0.277187
Heightened Def Con from 0.27722 to 0.27722
Heightened Def Con from 0.277252 to 0.277252
Heightened Def Con from 0.277285 to 0.277285
Heightened Def Con from 0.277351 to 0.277351
Heightened Def Con from 0.277384 to 0.277384
Heightened Def Con from 0.277416 to 0.277416
Heightened Def Con from 0.277449 to 0.277449
Heightened Def Con from 0.277515 to 0.277515
Heightened Def Con from 0.277547 to 0.277547
Heightened Def Con from 0.27758 to 0.27758
Heightened Def Con from 0.277777 to 0.277777
Heightened Def Con from 0.27781 to 0.27781
Heightened Def Con from 0.277875 to 0.277875
Heightened Def Con from 0.277908 to 0.277908
Heightened Def Con from 0.277973 to 0.277973
Heightened Def Con from 0.27817 to 0.27817
Heightened Def Con from 0.278268 to 0.278268
Heightened Def Con from 0.278334 to 0.278334
Heightened Def Con from 0.278432 to 0.278432
Heightened Def Con from 0.27853 to 0.27853
Heightened Def Con from 0.278596 to 0.278596
Heightened Def Con from 0.278629 to 0.278629
Heightened Def Con from 0.278793 to 0.278793
Heightened Def Con from 0.278825 to 0.278825
Heightened Def Con from 0.278858 to 0.278858
Heightened Def Con from 0.278924 to 0.278924
Heightened Def Con from 0.278956 to 0.278956
Heightened Def Con from 0.278989 to 0.278989
Heightened Def Con from 0.279022 to 0.279022
Heightened Def Con from 0.279055 to 0.279055
Heightened Def Con from 0.279219 to 0.279219
Heightened Def Con from 0.27935 to 0.27935
Heightened Def Con from 0.279382 to 0.279382
Heightened Def Con from 0.279579 to 0.279579
Heightened Def Con from 0.279808 to 0.279808
Heightened Def Con from 0.279972 to 0.279972
Heightened Def Con from 0.280005 to 0.280005
Heightened Def Con from 0.280038 to 0.280038
Heightened Def Con from 0.280398 to 0.280398
Heightened Def Con from 0.280431 to 0.280431
Heightened Def Con from 0.280464 to 0.280464
Heightened Def Con from 0.280496 to 0.280497
Heightened Def Con from 0.280628 to 0.280628
Heightened Def Con from 0.28066 to 0.28066
Heightened Def Con from 0.280726 to 0.280726
Heightened Def Con from 0.280791 to 0.280791
Heightened Def Con from 0.281185 to 0.281185
Heightened Def Con from 0.281316 to 0.281316
Heightened Def Con from 0.281348 to 0.281348
Heightened Def Con from 0.28148 to 0.28148
Heightened Def Con from 0.281545 to 0.281545
Heightened Def Con from 0.281742 to 0.281742
Heightened Def Con from 0.28184 to 0.28184
Heightened Def Con from 0.281906 to 0.281906
Heightened Def Con from 0.282135 to 0.282135
Heightened Def Con from 0.282168 to 0.282168
Heightened Def Con from 0.2822 to 0.2822
Heightened Def Con from 0.282266 to 0.282266
Heightened Def Con from 0.282299 to 0.282299
Heightened Def Con from 0.282332 to 0.282332
Heightened Def Con from 0.282462 to 0.282462
Heightened Def Con from 0.282594 to 0.282594
Heightened Def Con from 0.282725 to 0.282725
Heightened Def Con from 0.282823 to 0.282823
Heightened Def Con from 0.282889 to 0.282889
Heightened Def Con from 0.282921 to 0.282921
Heightened Def Con from 0.282987 to 0.282987
Heightened Def Con from 0.283085 to 0.283085
Heightened Def Con from 0.283118 to 0.283118
Heightened Def Con from 0.283151 to 0.283151
Heightened Def Con from 0.283216 to 0.283216
Heightened Def Con from 0.283282 to 0.283282
Heightened Def Con from 0.283413 to 0.283413
Heightened Def Con from 0.283446 to 0.283446
Heightened Def Con from 0.283478 to 0.283478
Heightened Def Con from 0.283511 to 0.283511
Heightened Def Con from 0.283544 to 0.283544
Heightened Def Con from 0.283577 to 0.283577
Heightened Def Con from 0.283609 to 0.283609
Heightened Def Con from 0.283642 to 0.283642
Heightened Def Con from 0.283741 to 0.283741
Heightened Def Con from 0.283773 to 0.283773
Heightened Def Con from 0.283806 to 0.283806
Heightened Def Con from 0.283904 to 0.283904
Heightened Def Con from 0.28397 to 0.28397
Heightened Def Con from 0.284003 to 0.284003
Heightened Def Con from 0.284167 to 0.284167
Heightened Def Con from 0.284232 to 0.284232
Heightened Def Con from 0.284396 to 0.284396
Heightened Def Con from 0.284429 to 0.284429
Heightened Def Con from 0.284593 to 0.284593
Heightened Def Con from 0.284625 to 0.284625
Heightened Def Con from 0.284756 to 0.284756
Heightened Def Con from 0.284822 to 0.284822
Heightened Def Con from 0.28492 to 0.28492
Heightened Def Con from 0.284953 to 0.284953
Heightened Def Con from 0.284986 to 0.284986
Heightened Def Con from 0.285051 to 0.285051
Heightened Def Con from 0.285182 to 0.285182
Heightened Def Con from 0.285215 to 0.285215
Heightened Def Con from 0.285248 to 0.285248
Heightened Def Con from 0.285281 to 0.285281
Heightened Def Con from 0.285313 to 0.285313
Heightened Def Con from 0.285346 to 0.285346
Heightened Def Con from 0.285379 to 0.285379
Heightened Def Con from 0.285444 to 0.285444
Heightened Def Con from 0.285477 to 0.285477
Heightened Def Con from 0.285543 to 0.285543
Heightened Def Con from 0.285674 to 0.285674
Heightened Def Con from 0.285772 to 0.285772
Heightened Def Con from 0.285903 to 0.285903
Heightened Def Con from 0.285969 to 0.285969
Heightened Def Con from 0.286002 to 0.286002
Heightened Def Con from 0.286067 to 0.286067
Heightened Def Con from 0.286165 to 0.286165
Heightened Def Con from 0.286231 to 0.286231
Heightened Def Con from 0.286264 to 0.286264
Heightened Def Con from 0.286296 to 0.286296
Heightened Def Con from 0.286395 to 0.286395
Heightened Def Con from 0.286493 to 0.286493
Heightened Def Con from 0.286526 to 0.286526
Heightened Def Con from 0.286559 to 0.286559
Heightened Def Con from 0.286591 to 0.286591
Heightened Def Con from 0.286624 to 0.286624
Heightened Def Con from 0.286657 to 0.286657
Heightened Def Con from 0.28669 to 0.28669
Heightened Def Con from 0.286886 to 0.286886
Heightened Def Con from 0.286952 to 0.286952
Heightened Def Con from 0.286985 to 0.286985
Heightened Def Con from 0.287083 to 0.287083
Heightened Def Con from 0.287116 to 0.287116
Heightened Def Con from 0.287148 to 0.287148
Heightened Def Con from 0.287279 to 0.287279
Heightened Def Con from 0.287411 to 0.287411
Heightened Def Con from 0.287443 to 0.287443
Heightened Def Con from 0.287607 to 0.287607
Heightened Def Con from 0.28764 to 0.28764
Heightened Def Con from 0.287705 to 0.287705
Heightened Def Con from 0.287738 to 0.287738
Heightened Def Con from 0.287935 to 0.287935
Heightened Def Con from 0.288066 to 0.288066
Heightened Def Con from 0.288164 to 0.288164
Heightened Def Con from 0.288229 to 0.288229
Heightened Def Con from 0.288394 to 0.288394
Heightened Def Con from 0.288426 to 0.288426
Heightened Def Con from 0.288492 to 0.288492
Heightened Def Con from 0.288525 to 0.288525
Heightened Def Con from 0.288623 to 0.288623
Heightened Def Con from 0.288689 to 0.288689
Heightened Def Con from 0.288721 to 0.288721
Heightened Def Con from 0.28882 to 0.28882
Heightened Def Con from 0.288885 to 0.288885
Heightened Def Con from 0.288918 to 0.288918
Heightened Def Con from 0.289114 to 0.289114
Heightened Def Con from 0.289147 to 0.289147
Heightened Def Con from 0.289246 to 0.289246
Heightened Def Con from 0.289442 to 0.289442
Heightened Def Con from 0.289475 to 0.289475
Heightened Def Con from 0.289606 to 0.289606
Heightened Def Con from 0.289639 to 0.289639
Heightened Def Con from 0.28977 to 0.28977
Heightened Def Con from 0.289966 to 0.289966
Heightened Def Con from 0.29013 to 0.29013
Heightened Def Con from 0.290163 to 0.290163
Heightened Def Con from 0.290196 to 0.290196
Heightened Def Con from 0.290294 to 0.290294
Heightened Def Con from 0.290327 to 0.290327
Heightened Def Con from 0.290458 to 0.290458
Heightened Def Con from 0.290556 to 0.290556
Heightened Def Con from 0.290589 to 0.290589
Heightened Def Con from 0.290622 to 0.290622
Heightened Def Con from 0.290655 to 0.290655
Heightened Def Con from 0.290687 to 0.290687
Heightened Def Con from 0.290786 to 0.290786
Heightened Def Con from 0.290851 to 0.290851
Heightened Def Con from 0.290884 to 0.290884
Heightened Def Con from 0.290982 to 0.290982
Heightened Def Con from 0.291048 to 0.291048
Heightened Def Con from 0.291113 to 0.291113
Heightened Def Con from 0.291146 to 0.291146
Heightened Def Con from 0.291277 to 0.291277
Heightened Def Con from 0.291375 to 0.291375
Heightened Def Con from 0.291408 to 0.291408
Heightened Def Con from 0.291441 to 0.291441
Heightened Def Con from 0.291834 to 0.291834
Heightened Def Con from 0.291933 to 0.291933
Heightened Def Con from 0.292064 to 0.292064
Heightened Def Con from 0.292096 to 0.292096
Heightened Def Con from 0.292129 to 0.292129
Heightened Def Con from 0.292359 to 0.292359
Heightened Def Con from 0.292391 to 0.292391
Heightened Def Con from 0.292457 to 0.292457
Heightened Def Con from 0.292522 to 0.292522
Heightened Def Con from 0.292555 to 0.292555
Heightened Def Con from 0.292588 to 0.292588
Heightened Def Con from 0.292621 to 0.292621
Heightened Def Con from 0.292686 to 0.292686
Heightened Def Con from 0.292719 to 0.292719
Heightened Def Con from 0.292752 to 0.292752
Heightened Def Con from 0.292784 to 0.292785
Heightened Def Con from 0.292817 to 0.292817
Heightened Def Con from 0.293276 to 0.293276
Heightened Def Con from 0.293309 to 0.293309
Heightened Def Con from 0.293505 to 0.293505
Heightened Def Con from 0.293636 to 0.293636
Heightened Def Con from 0.2938 to 0.2938
Heightened Def Con from 0.293931 to 0.293931
Heightened Def Con from 0.293964 to 0.293964
Heightened Def Con from 0.293997 to 0.293997
Heightened Def Con from 0.294062 to 0.294062
Heightened Def Con from 0.294128 to 0.294128
Heightened Def Con from 0.294194 to 0.294194
Heightened Def Con from 0.294259 to 0.294259
Heightened Def Con from 0.29439 to 0.29439
Heightened Def Con from 0.294423 to 0.294423
Heightened Def Con from 0.294456 to 0.294456
Heightened Def Con from 0.294554 to 0.294554
Heightened Def Con from 0.294587 to 0.294587
Heightened Def Con from 0.29462 to 0.29462
Heightened Def Con from 0.294652 to 0.294652
Heightened Def Con from 0.294685 to 0.294685
Heightened Def Con from 0.294718 to 0.294718
Heightened Def Con from 0.294751 to 0.294751
Heightened Def Con from 0.294783 to 0.294783
Heightened Def Con from 0.294947 to 0.294947
Heightened Def Con from 0.295078 to 0.295078
Heightened Def Con from 0.295242 to 0.295242
Heightened Def Con from 0.295275 to 0.295275
Heightened Def Con from 0.29534 to 0.29534
Heightened Def Con from 0.295504 to 0.295504
Heightened Def Con from 0.29557 to 0.29557
Heightened Def Con from 0.295897 to 0.295897
Heightened Def Con from 0.29593 to 0.29593
Heightened Def Con from 0.296029 to 0.296029
Heightened Def Con from 0.29616 to 0.29616
Heightened Def Con from 0.296225 to 0.296225
Heightened Def Con from 0.296258 to 0.296258
Heightened Def Con from 0.296422 to 0.296422
Heightened Def Con from 0.296455 to 0.296455
Heightened Def Con from 0.29652 to 0.29652
Heightened Def Con from 0.296553 to 0.296553
Heightened Def Con from 0.296586 to 0.296586
Heightened Def Con from 0.296651 to 0.296651
Heightened Def Con from 0.296684 to 0.296684
Heightened Def Con from 0.296815 to 0.296815
Heightened Def Con from 0.296848 to 0.296848
Heightened Def Con from 0.296946 to 0.296946
Heightened Def Con from 0.296979 to 0.296979
Heightened Def Con from 0.297012 to 0.297012
Heightened Def Con from 0.297241 to 0.297241
Heightened Def Con from 0.297339 to 0.297339
Heightened Def Con from 0.297372 to 0.297372
Heightened Def Con from 0.297438 to 0.297438
Heightened Def Con from 0.297601 to 0.297601
Heightened Def Con from 0.297667 to 0.297667
Heightened Def Con from 0.297732 to 0.297732
Heightened Def Con from 0.297765 to 0.297765
Heightened Def Con from 0.297798 to 0.297798
Heightened Def Con from 0.297831 to 0.297831
Heightened Def Con from 0.297864 to 0.297864
Heightened Def Con from 0.297896 to 0.297896
Heightened Def Con from 0.297995 to 0.297995
Heightened Def Con from 0.298027 to 0.298027
Heightened Def Con from 0.298093 to 0.298093
Heightened Def Con from 0.298126 to 0.298126
Heightened Def Con from 0.298158 to 0.298158
Heightened Def Con from 0.298257 to 0.298257
Heightened Def Con from 0.298322 to 0.298322
Heightened Def Con from 0.298421 to 0.298421
Heightened Def Con from 0.298486 to 0.298486
Heightened Def Con from 0.298519 to 0.298519
Heightened Def Con from 0.298552 to 0.298552
Heightened Def Con from 0.298617 to 0.298617
Heightened Def Con from 0.298748 to 0.298748
Heightened Def Con from 0.298912 to 0.298912
Heightened Def Con from 0.298945 to 0.298945
Heightened Def Con from 0.298978 to 0.298978
Heightened Def Con from 0.29901 to 0.29901
Heightened Def Con from 0.299043 to 0.299043
Heightened Def Con from 0.299207 to 0.299207
Heightened Def Con from 0.299305 to 0.299305
Heightened Def Con from 0.299338 to 0.299338
Heightened Def Con from 0.299371 to 0.299371
Heightened Def Con from 0.299404 to 0.299404
Heightened Def Con from 0.299436 to 0.299436
Heightened Def Con from 0.299535 to 0.299535
Heightened Def Con from 0.299567 to 0.299567
Heightened Def Con from 0.2996 to 0.2996
Heightened Def Con from 0.299633 to 0.299633
Heightened Def Con from 0.299764 to 0.299764
Heightened Def Con from 0.299797 to 0.299797
Heightened Def Con from 0.299862 to 0.299862

Date: Sun Oct 09 23:08:55 2022
Total elapsed time: 33.175 seconds.

tnom = 27
temp = 27
method = modified trap
totiter = 7180870
traniter = 7180356
tranpoints = 2547360
accept = 1795003
rejected = 763276
matrix size = 39
fillins = 39
solver = Normal
Matrix Compiler1: 3.43 KB object code size  0.7/0.2/[0.2]
Matrix Compiler2: 3.78 KB object code size  0.3/0.3/[0.2]

