Circuit: * C:\Users\Lukas\Documents\RP2040_AS3394\spice files\twin_t_test.asc

WARNING: Less than two connections to node N006.  This node is used by V4.
Direct Newton iteration for .op point succeeded.

Date: Sun Nov 06 17:31:02 2022
Total elapsed time: 0.016 seconds.

tnom = 27
temp = 27
method = trap
totiter = 11
traniter = 0
tranpoints = 0
accept = 0
rejected = 0
matrix size = 46
fillins = 30
solver = Normal
Matrix Compiler1:     196 opcodes
Matrix Compiler2: 4.09 KB object code size
