Circuit: * C:\Users\Lukas\Documents\Electronics_Projects\RP2040_AS3394\spice files\VCO.asc

WARNING: Less than two connections to node NC_01.  This node is used by V4.
Direct Newton iteration failed to find .op point.  (Use ".option noopiter" to skip.)
Starting Gmin stepping
Gmin = 10
Gmin = 1.07374
Gmin = 0.115292
Gmin = 0.0123794
Gmin = 0.00132923
vernier = 0.5
vernier = 0.25
vernier = 0.125
vernier = 0.0625
Gmin = 0.00100083
vernier = 0.03125
vernier = 0.015625
vernier = 0.0078125
vernier = 0.00390625
vernier = 0.00195313
Gmin = 0.00100083
vernier = 0.000976563
vernier = 0.000488281
Gmin = 0
Gmin stepping failed

Starting source stepping with srcstepmethod=0
Source Step = 3.0303%
Source Step = 33.3333%
Source Step = 63.6364%
Source Step = 93.9394%
Source stepping succeeded in finding the operating point.


Date: Fri Mar 17 19:46:42 2023
Total elapsed time: 0.421 seconds.

tnom = 27
temp = 27
method = modified trap
totiter = 40439
traniter = 38531
tranpoints = 19265
accept = 14659
rejected = 4606
matrix size = 77
fillins = 187
solver = Normal
Matrix Compiler1:     800 opcodes  2.0/[0.7]/0.8
Matrix Compiler2: 9.41 KB object code size  0.5/0.6/[0.5]

