Circuit: * C:\Users\Lukas\Documents\RP2040_AS3394\spice files\VCO.asc

WARNING: Less than two connections to node NC_01.  This node is used by V4.
Direct Newton iteration failed to find .op point.  (Use ".option noopiter" to skip.)
Starting Gmin stepping
Gmin = 10
Gmin = 1.07374
Gmin = 0.115292
Gmin = 0.0123794
Gmin = 0.00132923
vernier = 0.5
vernier = 0.25
vernier = 0.125
vernier = 0.0625
Gmin = 0.00100083
vernier = 0.03125
vernier = 0.015625
vernier = 0.0078125
vernier = 0.00390625
vernier = 0.00195313
Gmin = 0.00100083
vernier = 0.000976563
vernier = 0.000488281
Gmin = 0
Gmin stepping failed

Starting source stepping with srcstepmethod=0
Source Step = 3.0303%
Source Step = 33.3333%
Source Step = 63.6364%
Source Step = 93.9394%
Source Step = 100%
Source stepping succeeded in finding the operating point.


Date: Sat Sep 10 17:15:51 2022
Total elapsed time: 0.433 seconds.

tnom = 27
temp = 27
method = modified trap
totiter = 41166
traniter = 39038
tranpoints = 19519
accept = 14870
rejected = 4649
matrix size = 75
fillins = 243
solver = Normal
Matrix Compiler1:    1157 opcodes  2.4/[0.9]/1.1
Matrix Compiler2: 10.19 KB object code size  0.6/0.6/[0.5]

