Circuit: * C:\Users\Lukas\Documents\RP2040_AS3394\spice files\Wave_Select.asc

Direct Newton iteration for .op point succeeded.
Semiconductor Device Operating Points:
                        --- Diodes ---
Name:    d:u1:on     d:u1:op    d:u1:onm    d:u1:opm    d:u1:inr
Model:   u1:mdth     u1:mdth     u1:mdth     u1:mdth     u1:mdth
Id:     -4.84e-12   -5.12e-12   -1.55e-10   -1.58e-10   -4.50e-12
Vd:     -4.84e+00   -5.12e+00   -1.55e+02   -1.58e+02   -4.50e+00
Req:     1.00e+12    1.00e+12    1.00e+12    1.00e+12    1.00e+12
CAP:     1.66e-24    1.62e-24    3.20e-25    3.17e-25    1.71e-24

Name:   d:u1:inn     d:u1:in     d:u1:ip
Model:   u1:mdth     u1:mdth     u1:mdth
Id:     -5.78e-12    5.00e-06    5.00e-06
Vd:     -5.78e+00    7.20e-01    7.20e-01
Req:     1.00e+12    5.17e+03    5.17e+03
CAP:     1.54e-24    6.90e-24    6.90e-24



Date: Sat Nov 12 02:31:19 2022
Total elapsed time: 0.028 seconds.

tnom = 27
temp = 27
method = trap
totiter = 20
traniter = 0
tranpoints = 0
accept = 0
rejected = 0
matrix size = 46
fillins = 19
solver = Normal
Matrix Compiler1: 2.41 KB object code size
Matrix Compiler2: 3.73 KB object code size
